data/inputs/nesta_case6495_rte.m
%%%%%%%%%%%%%%%%%%%%%%%%%%%%%%%%%%%%%%%%%%%%%%%%%%%%%%%%%%%%%%%%%%%%%%%%%%%
%%%%                                                                  %%%%%
%%%%      NICTA Energy System Test Case Archive (NESTA) - v0.7.0      %%%%%
%%%%              Optimal Power Flow - Typical Operation              %%%%%
%%%%                         05 - June - 2017                         %%%%%
%%%%                                                                  %%%%%
%%%%%%%%%%%%%%%%%%%%%%%%%%%%%%%%%%%%%%%%%%%%%%%%%%%%%%%%%%%%%%%%%%%%%%%%%%%
%
%CASE6495RTE
%   AC Power flow data for French system.
%   Please see CASEFORMAT for details on the case file format.
%
%   This case accurately represents the size and complexity of French
%   very high voltage and high voltage transmission network.
%   These data are snapshots of French VHV+HV grid in 2013.
%   These data can be used to validate mathematical methods and tools.
%   These data should NOT be used for operation
%   nor planning of the French or European grids.
%
%   When publishing results using this data, please cite:
%     C. Josz, S. Fliscounakis, J. Maeght, and P. Panciatici,
%     "AC Power Flow Data in MATPOWER and QCQP Format: iTesla, RTE Snapshots, and PEGASE"
%     http://arxiv.org/abs/1603.01533
%
%   Contacts (primary contact for this file : Jean Maeght):
%   Cédric Josz, Stéphane Fliscounakis, Jean Maeght, Patrick Panciatici
%   firstname.lastname@rte-france.com
%   Réseau de Transport d'Electricité (French Transmission System Operator)
%   Département Expertise Système, Immeuble "Le Colbert"
%   9 rue de la Porte de Buc, 78000 Versailles Cedex, France
%   March 4th, 2016
%
function mpc = nesta_case6495_rte
mpc.version = '2';
mpc.baseMVA = 100.0;

%% bus data
%	bus_i	type	Pd	Qd	Gs	Bs	area	Vm	Va	baseKV	zone	Vmax	Vmin
mpc.bus = [
	1	 1	 0.0	 0.0	 0.0	 0.0	 1	    0.99480	  -33.44652	 45.0	 1	    1.00000	    0.88889;
	2	 1	 0.0	 0.0	 0.0	 0.0	 1	    1.04714	  -15.04139	 63.0	 1	    1.06349	    0.93651;
	3	 1	 13.1	 2.6	 0.0	 0.0	 1	    0.98945	  -32.36081	 63.0	 1	    1.07937	    0.95238;
	4	 1	 49.2	 3.4	 0.0	 0.0	 1	    1.06154	  -28.86861	 90.0	 1	    1.08889	    0.93333;
	5	 1	 11.0	 0.0	 0.0	 0.0	 1	    1.02738	  -50.10518	 63.0	 1	    1.06349	    0.95238;
	6	 1	 13.0	 4.3	 0.0	 0.0	 1	    1.01986	  -12.93194	 63.0	 1	    1.07937	    0.92063;
	7	 1	 1.2	 0.7	 0.0	 0.0	 1	    1.05452	  -14.41049	 63.0	 1	    1.07937	    0.92063;
	8	 1	 24.6	 13.1	 0.0	 0.0	 1	    1.06450	  -24.03508	 225.0	 1	    1.08889	    0.88889;
	9	 1	 14.9	 0.0	 0.0	 0.0	 1	    1.04208	  -38.61400	 63.0	 1	    1.06349	    0.93651;
	10	 1	 0.0	 0.0	 0.0	 0.0	 1	    1.06261	  -27.71039	 90.0	 1	    1.07778	    0.92222;
	11	 1	 30.7	 -2.0	 0.0	 0.0	 1	    1.06261	  -27.71039	 90.0	 1	    1.07778	    0.92222;
	12	 1	 0.0	 0.0	 0.0	 0.0	 1	    1.02299	  -20.25976	 63.0	 1	    1.07937	    0.95238;
	13	 1	 0.0	 0.0	 0.0	 0.0	 1	    1.07811	   -3.43137	 380.0	 1	    1.10263	    1.05313;
	14	 1	 52.7	 13.4	 0.0	 30.4	 1	    1.07665	  -30.92936	 90.0	 1	    1.07778	    0.97778;
	15	 1	 0.0	 0.0	 0.0	 0.0	 1	    1.02665	  -13.64986	 63.0	 1	    1.07937	    0.92063;
	16	 1	 12.5	 -0.6	 0.0	 0.0	 1	    1.04438	  -19.94800	 63.0	 1	    1.07937	    0.92063;
	17	 1	 10.9	 0.2	 0.0	 0.0	 1	    1.04922	  -26.29235	 90.0	 1	    1.06667	    0.97778;
	18	 1	 0.0	 0.0	 0.0	 0.0	 1	    0.96486	  -26.75905	 45.0	 1	    1.00000	    0.88889;
	19	 1	 0.0	 0.0	 0.0	 0.0	 1	    1.04547	  -21.62683	 63.0	 1	    1.06349	    0.93651;
	20	 1	 3.9	 -18.2	 0.0	 0.0	 1	    0.96562	  -26.79181	 45.0	 1	    1.00000	    0.88889;
	21	 1	 6.3	 -2.5	 0.0	 0.0	 1	    1.03910	  -14.87318	 90.0	 1	    1.06667	    0.97778;
	22	 1	 17.3	 0.8	 0.0	 0.0	 1	    1.04782	  -23.31382	 63.0	 1	    1.07937	    0.95238;
	23	 1	 24.4	 1.4	 0.0	 0.0	 1	    1.05289	  -32.17347	 63.0	 1	    1.06349	    0.93651;
	24	 1	 16.7	 -1.3	 0.0	 0.0	 1	    1.06426	  -27.20843	 90.0	 1	    1.11111	    0.95556;
	25	 1	 51.1	 -4.0	 0.0	 0.0	 1	    1.09380	  -24.69412	 90.0	 1	    1.10000	    0.94444;
	26	 1	 32.4	 5.0	 0.0	 0.0	 1	    1.03974	  -22.34573	 90.0	 1	    1.06667	    0.97778;
	27	 1	 0.0	 0.0	 0.0	 0.0	 1	    1.07216	  -17.80964	 225.0	 1	    1.08444	    1.00444;
	28	 1	 0.0	 -0.2	 0.0	 0.0	 1	    1.03419	  -32.44117	 63.0	 1	    1.07937	    0.95238;
	29	 1	 75.0	 9.3	 0.0	 0.0	 1	    1.03402	  -20.19275	 63.0	 1	    1.06349	    0.96825;
	30	 1	 37.6	 3.3	 0.0	 0.0	 1	    1.05922	  -27.87202	 90.0	 1	    1.08889	    0.93333;
	31	 1	 0.0	 0.0	 0.0	 0.0	 1	    1.05663	  -29.26168	 63.0	 1	    1.06349	    0.93651;
	32	 1	 0.0	 0.0	 0.0	 0.0	 1	    1.09448	  -26.13913	 150.0	 1	    1.10667	    0.90000;
	33	 1	 0.0	 0.0	 0.0	 0.0	 1	    1.06878	  -25.89354	 225.0	 1	    1.08889	    0.93333;
	34	 1	 0.0	 0.0	 0.0	 0.0	 1	    1.07706	  -25.96139	 225.0	 1	    1.08889	    0.93333;
	35	 1	 0.0	 0.0	 0.0	 0.0	 1	    1.05396	  -21.13635	 380.0	 1	    1.10526	    1.03947;
	36	 1	 0.0	 0.0	 0.0	 0.0	 1	    1.03947	  -19.88925	 380.0	 1	    1.10526	    1.03947;
	37	 1	 2.4	 4.7	 0.0	 0.0	 1	    1.00897	  -17.60766	 63.0	 1	    1.07937	    0.92063;
	38	 1	 8.0	 3.0	 0.0	 0.0	 1	    1.05214	  -27.33628	 63.0	 1	    1.09524	    0.93651;
	39	 1	 40.6	 -4.9	 0.0	 0.0	 1	    1.02228	  -38.60059	 90.0	 1	    1.07778	    0.97778;
	40	 1	 34.7	 5.1	 0.0	 0.0	 1	    1.06362	  -29.04610	 90.0	 1	    1.07778	    0.97778;
	41	 1	 0.0	 0.0	 0.0	 0.0	 1	    1.08978	  -29.04593	 225.0	 1	    1.09152	    1.00444;
	42	 1	 0.0	 0.0	 0.0	 0.0	 1	    1.12797	  -15.43736	 63.0	 1	    1.12834	    0.95238;
	43	 1	 3.3	 2.7	 0.0	 0.0	 1	    1.05948	  -29.51417	 90.0	 1	    1.07778	    0.97778;
	44	 1	 15.2	 1.6	 0.0	 0.0	 1	    1.03374	  -47.03381	 63.0	 1	    1.06349	    0.95238;
	45	 1	 3.8	 0.8	 0.0	 0.0	 1	    1.02677	  -31.97990	 90.0	 1	    1.06667	    0.97778;
	46	 1	 0.0	 0.0	 0.0	 0.0	 1	    1.05251	  -31.56678	 63.0	 1	    1.06349	    0.93651;
	47	 2	 0.0	 0.0	 0.0	 0.0	 1	    1.06349	  -29.77375	 63.0	 1	    1.06349	    0.93651;
	48	 1	 38.6	 3.9	 0.0	 0.0	 1	    1.05554	  -28.67749	 90.0	 1	    1.07778	    0.92222;
	49	 1	 9.9	 -2.6	 0.0	 0.0	 1	    1.03069	  -22.44905	 63.0	 1	    1.06349	    0.93651;
	50	 1	 0.0	 0.0	 0.0	 0.0	 1	    1.06718	  -34.31497	 63.0	 1	    1.07458	    0.93651;
	51	 1	 0.0	 0.0	 0.0	 0.0	 1	    1.05203	  -29.55501	 225.0	 1	    1.08889	    0.93333;
	52	 1	 8.0	 3.5	 0.0	 0.0	 1	    1.04011	  -33.44099	 90.0	 1	    1.06667	    0.97778;
	53	 1	 0.1	 -1.2	 0.0	 0.0	 1	    1.02191	  -31.69159	 63.0	 1	    1.04762	    0.95238;
	54	 1	 -0.6	 1.2	 0.0	 0.0	 1	    1.04683	  -16.92109	 90.0	 1	    1.06667	    0.97778;
	55	 1	 49.0	 11.3	 0.0	 0.0	 1	    1.08989	  -32.41020	 225.0	 1	    1.08991	    1.00444;
	56	 1	 78.6	 22.5	 0.0	 0.0	 1	    1.07999	  -30.21182	 225.0	 1	    1.08889	    1.00444;
	57	 2	 0.0	 0.0	 0.0	 0.0	 1	    1.05610	   -6.90178	 63.0	 1	    1.07937	    0.92063;
	58	 1	 146.7	 32.5	 0.0	 0.0	 1	    1.08973	  -32.42484	 225.0	 1	    1.08975	    1.00444;
	59	 1	 5.1	 0.4	 0.0	 0.0	 1	    1.01326	  -30.54142	 63.0	 1	    1.07937	    0.95238;
	60	 1	 0.0	 0.0	 0.0	 0.0	 1	    1.03256	  -25.19513	 63.0	 1	    1.07937	    0.95238;
	61	 1	 41.4	 11.6	 0.0	 0.0	 1	    0.99784	  -27.67828	 63.0	 1	    1.07937	    0.95238;
	62	 1	 0.0	 0.0	 0.0	 0.0	 1	    1.01538	  -25.45414	 63.0	 1	    1.07937	    0.95238;
	63	 1	 15.8	 2.0	 0.0	 0.0	 1	    1.01635	  -19.13596	 63.0	 1	    1.07937	    0.95238;
	64	 1	 64.3	 5.4	 0.0	 0.0	 1	    1.08195	  -22.26001	 225.0	 1	    1.08889	    0.88889;
	65	 1	 12.0	 2.9	 0.0	 0.0	 1	    1.00763	  -28.34423	 63.0	 1	    1.07937	    0.95238;
	66	 1	 14.4	 -6.8	 0.0	 0.0	 1	    1.04815	  -24.47302	 63.0	 1	    1.06349	    0.93651;
	67	 1	 1.0	 0.0	 0.0	 0.0	 1	    1.04118	  -14.62102	 63.0	 1	    1.07937	    0.92063;
	68	 1	 48.7	 3.8	 0.0	 0.0	 1	    1.01098	  -23.23215	 63.0	 1	    1.06349	    0.93651;
	69	 1	 17.3	 -1.6	 0.0	 0.0	 1	    1.05125	  -51.15790	 63.0	 1	    1.06349	    0.95238;
	70	 1	 11.7	 3.5	 0.0	 0.0	 1	    1.02848	  -19.05596	 63.0	 1	    1.07937	    0.95238;
	71	 1	 68.8	 17.2	 0.0	 0.0	 1	    1.04138	  -32.68878	 63.0	 1	    1.04762	    0.95238;
	72	 1	 0.0	 0.0	 0.0	 0.0	 1	    1.08890	  -22.14466	 225.0	 1	    1.08892	    1.00444;
	73	 1	 0.0	 0.0	 0.0	 0.0	 1	    1.08890	  -22.14466	 225.0	 1	    1.08892	    1.00444;
	74	 1	 53.3	 -8.7	 0.0	 0.0	 1	    1.08240	  -22.15966	 225.0	 1	    1.08889	    0.88889;
	75	 1	 25.0	 1.6	 0.0	 0.0	 1	    1.06232	  -25.32156	 90.0	 1	    1.06667	    0.97778;
	76	 1	 9.0	 0.7	 0.0	 0.0	 1	    1.08053	  -16.12084	 225.0	 1	    1.08889	    0.98667;
	77	 1	 40.8	 -1.5	 0.0	 0.0	 1	    1.00986	  -25.14175	 63.0	 1	    1.06349	    0.93651;
	78	 1	 0.0	 0.0	 0.0	 0.0	 1	    1.02641	  -16.12518	 63.0	 1	    1.07937	    0.92063;
	79	 1	 0.0	 0.0	 0.0	 0.0	 1	    1.02005	  -30.87052	 63.0	 1	    1.04762	    0.95238;
	80	 1	 34.6	 10.4	 0.0	 0.0	 1	    1.06345	  -30.74423	 225.0	 1	    1.08889	    1.00444;
	81	 1	 34.6	 9.0	 0.0	 0.0	 1	    1.06347	  -30.74416	 225.0	 1	    1.08889	    1.00444;
	82	 1	 11.6	 -0.2	 0.0	 0.0	 1	    1.04061	  -21.56987	 63.0	 1	    1.06349	    0.93651;
	83	 1	 92.4	 64.5	 0.0	 0.0	 1	    1.07247	  -29.57596	 225.0	 1	    1.08889	    1.00444;
	84	 1	 1.4	 -0.2	 0.0	 0.0	 1	    1.04998	  -15.66871	 63.0	 1	    1.06349	    0.93651;
	85	 1	 1.8	 -2.0	 0.0	 0.0	 1	    1.05312	  -11.21823	 63.0	 1	    1.06568	    0.93651;
	86	 1	 44.9	 3.7	 0.0	 0.0	 1	    1.03888	  -39.55639	 90.0	 1	    1.06667	    0.97778;
	87	 1	 0.0	 0.0	 0.0	 0.0	 1	    1.03083	  -19.67997	 63.0	 1	    1.07937	    0.95238;
	88	 1	 15.9	 2.0	 0.0	 0.0	 1	    1.05589	  -17.32241	 63.0	 1	    1.06349	    0.93651;
	89	 1	 25.7	 0.4	 0.0	 0.0	 1	    1.05583	  -31.99097	 90.0	 1	    1.07778	    0.97778;
	90	 1	 0.4	 -2.3	 0.0	 0.0	 1	    0.96653	  -27.20363	 45.0	 1	    1.00000	    0.88889;
	91	 1	 0.0	 0.0	 0.0	 0.0	 1	    0.96486	  -26.75905	 45.0	 1	    1.00000	    0.88889;
	92	 1	 31.6	 3.2	 0.0	 0.0	 1	    1.03399	  -15.94005	 63.0	 1	    1.06349	    0.96825;
	93	 1	 2.2	 -2.2	 0.0	 0.0	 1	    0.98039	  -28.56736	 45.0	 1	    1.00000	    0.88889;
	94	 1	 16.9	 -4.6	 0.0	 0.0	 1	    1.05279	  -22.99456	 90.0	 1	    1.06667	    0.97778;
	95	 1	 53.2	 9.3	 0.0	 0.0	 1	    1.04018	  -32.90564	 90.0	 1	    1.06667	    0.97778;
	96	 1	 1.2	 0.1	 0.0	 0.0	 1	    1.05686	  -29.41072	 63.0	 1	    1.06349	    0.93651;
	97	 1	 55.0	 1.6	 0.0	 0.0	 1	    1.06042	  -15.87517	 63.0	 1	    1.07937	    0.92063;
	98	 1	 7.7	 -2.1	 0.0	 0.0	 1	    1.03951	  -27.02412	 63.0	 1	    1.07937	    0.95238;
	99	 1	 31.9	 5.0	 0.0	 0.0	 1	    1.00407	  -27.36220	 63.0	 1	    1.07937	    0.95238;
	100	 1	 59.9	 8.9	 0.0	 0.0	 1	    1.01866	  -35.07445	 63.0	 1	    1.06349	    0.93651;
	101	 1	 17.1	 0.1	 0.0	 0.0	 1	    1.04746	  -16.02416	 63.0	 1	    1.06349	    0.93651;
	102	 2	 0.0	 0.0	 0.0	 0.0	 1	    1.05253	  -11.25372	 63.0	 1	    1.07937	    0.95238;
	103	 1	 13.0	 -1.4	 0.0	 0.0	 1	    1.02267	  -24.73561	 63.0	 1	    1.07937	    0.95238;
	104	 1	 0.0	 0.0	 0.0	 0.0	 1	    1.05224	  -22.17161	 225.0	 1	    1.08889	    0.98667;
	105	 1	 37.7	 0.8	 0.0	 0.0	 1	    1.06269	  -22.82364	 225.0	 1	    1.08889	    0.88889;
	106	 1	 56.3	 8.2	 0.0	 0.0	 1	    1.07433	  -27.43365	 90.0	 1	    1.10000	    0.94444;
	107	 1	 107.4	 13.9	 0.0	 0.0	 1	    1.05133	  -28.70596	 225.0	 1	    1.08444	    1.00889;
	108	 1	 12.7	 -3.9	 0.0	 0.0	 1	    1.06325	  -26.61574	 90.0	 1	    1.07778	    0.97778;
	109	 1	 60.8	 4.1	 0.0	 0.0	 1	    1.05743	  -19.27052	 63.0	 1	    1.06837	    0.93651;
	110	 1	 0.0	 0.0	 0.0	 0.0	 1	    1.03503	  -17.69860	 225.0	 1	    1.08889	    0.93333;
	111	 1	 37.3	 -7.4	 0.0	 0.0	 1	    1.03138	  -18.30838	 63.0	 1	    1.06349	    0.96825;
	112	 1	 0.0	 0.0	 0.0	 0.0	 1	    1.03829	  -30.58259	 63.0	 1	    1.04762	    0.95238;
	113	 1	 0.0	 0.0	 0.0	 0.0	 1	    1.06961	  -27.20482	 225.0	 1	    1.08889	    1.00444;
	114	 1	 12.9	 0.7	 0.0	 0.0	 1	    1.04991	  -34.39769	 63.0	 1	    1.06349	    0.93651;
	115	 1	 0.0	 0.0	 0.0	 0.0	 1	    1.07812	   -3.43145	 380.0	 1	    1.10526	    1.05263;
	116	 1	 0.0	 0.0	 0.0	 0.0	 1	    1.07812	   -3.43145	 380.0	 1	    1.10526	    1.05263;
	117	 1	 12.8	 -2.1	 0.0	 0.0	 1	    1.01631	  -33.44869	 63.0	 1	    1.07937	    0.95238;
	118	 1	 2.0	 0.8	 0.0	 0.0	 1	    1.06467	  -25.00796	 90.0	 1	    1.06667	    0.97778;
	119	 1	 40.3	 3.7	 0.0	 0.0	 1	    0.99531	  -17.41969	 63.0	 1	    1.06349	    0.93651;
	120	 1	 22.0	 -2.3	 0.0	 0.0	 1	    1.06162	  -31.96624	 63.0	 1	    1.06349	    0.93651;
	121	 1	 22.1	 6.8	 0.0	 0.0	 1	    1.02585	  -19.55806	 63.0	 1	    1.07937	    0.92063;
	122	 2	 0.0	 0.0	 0.0	 0.0	 1	    1.03243	  -24.95966	 63.0	 1	    1.07937	    0.95238;
	123	 1	 11.0	 3.7	 0.0	 0.0	 1	    1.02931	  -25.12612	 63.0	 1	    1.07937	    0.95238;
	124	 1	 8.9	 -2.2	 0.0	 0.0	 1	    1.04934	  -23.13731	 90.0	 1	    1.06667	    0.97778;
	125	 1	 11.6	 -1.2	 0.0	 0.0	 1	    1.05871	  -21.95810	 63.0	 1	    1.07937	    0.95238;
	126	 1	 0.4	 0.3	 0.0	 0.0	 1	    1.04847	  -10.39844	 63.0	 1	    1.06349	    0.93651;
	127	 1	 10.7	 2.9	 0.0	 0.0	 1	    1.01646	  -33.38314	 63.0	 1	    1.04762	    0.95238;
	128	 1	 13.4	 5.0	 0.0	 0.0	 1	    1.05120	   -8.67372	 63.0	 1	    1.06349	    0.96825;
	129	 1	 17.0	 12.8	 0.0	 0.0	 1	    1.05650	   -6.54497	 63.0	 1	    1.06349	    0.96825;
	130	 1	 0.0	 0.0	 0.0	 0.0	 1	    1.07174	   -7.10452	 225.0	 1	    1.08444	    1.00889;
	131	 1	 110.7	 4.4	 0.0	 0.0	 1	    1.07584	  -14.45894	 225.0	 1	    1.08444	    1.00889;
	132	 2	 9.4	 0.0	 0.0	 0.0	 1	    1.07778	   -4.88230	 90.0	 1	    1.07778	    0.92222;
	133	 1	 2.5	 -0.1	 0.0	 0.0	 1	    1.00116	  -34.50488	 63.0	 1	    1.04762	    0.95238;
	134	 1	 101.1	 28.6	 0.0	 0.0	 1	    1.04762	  -31.42881	 225.0	 1	    1.08889	    1.00444;
	135	 1	 0.0	 0.0	 0.0	 0.0	 1	    1.09068	  -32.24428	 225.0	 1	    1.09072	    1.00444;
	136	 1	 23.7	 0.6	 0.0	 0.0	 1	    1.05641	  -38.15739	 90.0	 1	    1.07778	    0.97778;
	137	 2	 8.1	 -3.8	 0.0	 0.0	 1	    1.03602	  -17.51413	 63.0	 1	    1.06349	    0.96825;
	138	 1	 0.0	 0.0	 0.0	 0.0	 1	    1.05678	  -18.37780	 150.0	 1	    1.08000	    0.96667;
	139	 1	 15.7	 4.1	 0.0	 0.0	 1	    1.06394	   -9.16250	 63.0	 1	    1.07937	    0.92063;
	140	 1	 0.0	 0.0	 0.0	 80.0	 1	    1.08889	   -5.65368	 225.0	 1	    1.08889	    1.00000;
	141	 1	 0.0	 0.0	 0.0	 0.0	 1	    1.09614	   -2.55077	 380.0	 1	    1.10526	    1.05263;
	142	 1	 12.5	 1.1	 0.0	 0.0	 1	    1.01681	  -30.07274	 63.0	 1	    1.07937	    0.95238;
	143	 1	 0.0	 0.0	 0.0	 0.0	 1	    1.03226	  -25.74220	 225.0	 1	    1.08889	    0.98667;
	144	 1	 8.9	 2.5	 0.0	 0.0	 1	    1.07021	  -25.39817	 90.0	 1	    1.11111	    0.95556;
	145	 1	 24.0	 7.7	 0.0	 0.0	 1	    1.08339	  -21.97212	 225.0	 1	    1.08889	    0.96889;
	146	 1	 0.0	 0.0	 0.0	 0.0	 1	    1.09168	  -18.89915	 380.0	 1	    1.10526	    1.00000;
	147	 1	 28.0	 4.6	 0.0	 0.0	 1	    1.03684	  -32.27168	 63.0	 1	    1.06349	    0.93651;
	148	 1	 6.6	 1.5	 0.0	 0.0	 1	    1.04174	  -21.98771	 63.0	 1	    1.06349	    0.93651;
	149	 1	 15.9	 4.2	 0.0	 0.0	 1	    1.04673	  -32.65120	 90.0	 1	    1.06667	    0.97778;
	150	 1	 48.4	 1.0	 0.0	 0.0	 1	    1.05494	  -29.74153	 63.0	 1	    1.06349	    0.93651;
	151	 1	 0.0	 0.0	 0.0	 0.0	 1	    1.01135	  -21.17109	 63.0	 1	    1.06349	    0.96825;
	152	 1	 42.6	 9.4	 0.0	 7.7	 1	    1.01129	  -19.91823	 63.0	 1	    1.06349	    0.96825;
	153	 1	 26.9	 -4.9	 0.0	 0.0	 1	    1.04060	  -28.88428	 63.0	 1	    1.06349	    0.93651;
	154	 1	 0.0	 0.0	 0.0	 0.0	 1	    1.06185	  -24.72660	 225.0	 1	    1.08889	    0.93333;
	155	 2	 0.0	 0.0	 0.0	 0.0	 1	    1.01924	   -7.29719	 63.0	 1	    1.07937	    0.92063;
	156	 1	 0.0	 0.0	 0.0	 0.0	 1	    1.01131	  -21.17645	 63.0	 1	    1.06349	    0.96825;
	157	 1	 -1.4	 -2.3	 0.0	 0.0	 1	    0.93284	  -30.14990	 45.0	 1	    1.00000	    0.88889;
	158	 2	 0.0	 0.0	 0.0	 0.0	 1	    0.98662	  -28.92318	 45.0	 1	    1.00000	    0.88889;
	159	 1	 0.0	 0.0	 0.0	 0.0	 1	    1.04314	  -32.38973	 63.0	 1	    1.06349	    0.93651;
	160	 1	 39.6	 5.7	 0.0	 0.0	 1	    1.07007	  -21.68524	 225.0	 1	    1.08889	    0.88889;
	161	 1	 40.6	 10.8	 0.0	 0.0	 1	    1.06986	  -21.68650	 225.0	 1	    1.08889	    0.88889;
	162	 1	 -0.1	 -1.2	 0.0	 0.0	 1	    1.04127	  -21.84180	 90.0	 1	    1.06667	    0.97778;
	163	 1	 0.0	 0.0	 0.0	 0.0	 1	    1.01587	  -26.10514	 63.0	 1	    1.07937	    0.95238;
	164	 1	 0.0	 0.0	 0.0	 0.0	 1	    1.01587	  -26.10514	 63.0	 1	    1.07937	    0.95238;
	165	 1	 12.5	 6.7	 0.0	 0.0	 1	    1.07816	  -28.26232	 20.0	 1	    1.15000	    0.80000;
	166	 1	 8.1	 -0.3	 0.0	 0.0	 1	    1.04660	  -32.25335	 90.0	 1	    1.06667	    0.97778;
	167	 1	 8.3	 -2.0	 0.0	 0.0	 1	    1.04419	  -32.74645	 90.0	 1	    1.06667	    0.97778;
	168	 1	 0.0	 0.0	 0.0	 0.0	 1	    1.07822	  -28.25743	 225.0	 1	    1.08444	    1.00444;
	169	 1	 9.1	 -0.5	 0.0	 0.0	 1	    1.04087	  -25.51053	 90.0	 1	    1.06667	    0.97778;
	170	 1	 78.8	 13.1	 0.0	 0.0	 1	    1.06073	  -32.62615	 90.0	 1	    1.07778	    0.97778;
	171	 1	 26.3	 -0.9	 0.0	 30.0	 1	    1.07277	  -35.45348	 90.0	 1	    1.07921	    0.97778;
	172	 1	 0.0	 0.0	 0.0	 0.0	 1	    1.08209	  -31.39086	 225.0	 1	    1.08889	    1.00444;
	173	 1	 28.9	 8.2	 0.0	 0.0	 1	    1.08317	  -24.14005	 90.0	 1	    1.08889	    0.93333;
	174	 1	 54.8	 9.7	 0.0	 0.0	 1	    1.08790	  -27.73316	 90.0	 1	    1.11111	    0.95556;
	175	 1	 0.0	 0.0	 0.0	 0.0	 1	    1.01439	   -9.87385	 63.0	 1	    1.07937	    0.92063;
	176	 2	 0.0	 0.0	 0.0	 0.0	 1	    1.07365	   -6.01290	 150.0	 1	    1.10000	    0.90000;
	177	 1	 0.0	 0.0	 0.0	 0.0	 1	    1.07049	  -30.16044	 225.0	 1	    1.08889	    1.00444;
	178	 1	 0.0	 0.0	 0.0	 0.0	 1	    1.07049	  -30.16045	 225.0	 1	    1.08889	    1.00444;
	179	 1	 0.0	 0.0	 0.0	 0.0	 1	    1.01662	  -33.37348	 63.0	 1	    1.04762	    0.95238;
	180	 1	 0.0	 0.0	 0.0	 0.0	 1	    1.07049	  -30.16044	 225.0	 1	    1.08889	    1.00444;
	181	 1	 14.2	 -5.0	 0.0	 0.0	 1	    1.05704	  -17.57674	 63.0	 1	    1.07937	    0.92063;
	182	 1	 15.0	 4.1	 0.0	 0.0	 1	    1.02452	  -17.73213	 63.0	 1	    1.06349	    0.93651;
	183	 1	 6.2	 -0.7	 0.0	 0.0	 1	    1.03228	  -29.65924	 63.0	 1	    1.07937	    0.95238;
	184	 1	 4.0	 1.4	 0.0	 0.0	 1	    1.07147	  -25.39732	 90.0	 1	    1.07778	    0.97778;
	185	 1	 28.1	 2.7	 0.0	 0.0	 1	    1.00898	  -30.87953	 63.0	 1	    1.07937	    0.95238;
	186	 1	 0.4	 1.3	 0.0	 0.0	 1	    1.04252	  -21.24190	 90.0	 1	    1.06667	    0.97778;
	187	 2	 0.0	 0.0	 0.0	 0.0	 1	    1.03591	   -9.93294	 63.0	 1	    1.07937	    0.92063;
	188	 1	 0.0	 0.0	 0.0	 0.0	 1	    1.08461	   -8.15275	 63.0	 1	    1.10211	    0.92063;
	189	 1	 16.4	 2.1	 0.0	 0.0	 1	    1.03020	  -13.82776	 63.0	 1	    1.07937	    0.92063;
	190	 2	 0.0	 0.0	 0.0	 0.0	 1	    0.96458	  -27.67651	 45.0	 1	    1.00000	    0.88889;
	191	 1	 14.3	 -1.2	 0.0	 0.0	 1	    1.04199	  -25.44119	 90.0	 1	    1.06667	    0.97778;
	192	 1	 7.2	 -2.0	 0.0	 0.0	 1	    1.06126	   -7.33819	 63.0	 1	    1.07937	    0.92063;
	193	 1	 -0.3	 0.8	 0.0	 0.0	 1	    1.06934	  -27.69874	 225.0	 1	    1.08889	    1.00444;
	194	 2	 0.7	 -2.2	 0.0	 0.0	 1	    1.06642	  -14.01628	 63.0	 1	    1.07937	    0.92063;
	195	 1	 0.0	 0.0	 0.0	 0.0	 1	    1.07435	  -31.51678	 63.0	 1	    1.07545	    0.95238;
	196	 1	 0.0	 0.0	 0.0	 0.0	 1	    1.07435	  -31.51682	 63.0	 1	    1.07546	    0.95238;
	197	 1	 27.3	 0.8	 0.0	 15.0	 1	    1.03859	  -22.27579	 63.0	 1	    1.07937	    0.92063;
	198	 1	 10.0	 -0.7	 0.0	 0.0	 1	    1.02580	  -13.10365	 63.0	 1	    1.07937	    0.92063;
	199	 1	 11.4	 1.5	 0.0	 0.0	 1	    1.02787	  -38.54158	 90.0	 1	    1.06667	    0.97778;
	200	 1	 0.0	 0.0	 0.0	 0.0	 1	    1.06532	  -10.01311	 225.0	 1	    1.08889	    1.00000;
...
];

%% generator data
%	bus	Pg	Qg	Qmax	Qmin	Vg	mBase	status	Pmax	Pmin	Pc1	Pc2	Qc1min	Qc1max	Qc2min	Qc2max	ramp_agc	ramp_10	ramp_30	ramp_q	apf
mpc.gen = [
	4	 0.0	 0.0	 0.0	 0.0	 1.06154	 100.0	 0	 12.0	 0.0	 0.0	 0.0	 0.0	 0.0	 0.0	 0.0	 0.0	 0.0	 0.0	 0.0	 0.0;
	4	 0.0	 0.0	 0.0	 0.0	 1.06154	 100.0	 0	 10.0	 0.0	 0.0	 0.0	 0.0	 0.0	 0.0	 0.0	 0.0	 0.0	 0.0	 0.0	 0.0;
	5	 0.0	 0.0	 0.0	 0.0	 1.02738	 100.0	 0	 9.1	 0.0	 0.0	 0.0	 0.0	 0.0	 0.0	 0.0	 0.0	 0.0	 0.0	 0.0	 0.0;
	11	 28.0	 0.0	 0.0	 0.0	 1.06261	 100.0	 1	 28.0	 0.0	 0.0	 0.0	 0.0	 0.0	 0.0	 0.0	 0.0	 0.0	 0.0	 0.0	 0.0;
	11	 0.0	 0.0	 0.0	 0.0	 1.06261	 100.0	 0	 18.0	 0.0	 0.0	 0.0	 0.0	 0.0	 0.0	 0.0	 0.0	 0.0	 0.0	 0.0	 0.0;
	17	 0.0	 0.0	 0.0	 0.0	 1.04922	 100.0	 0	 8.2	 0.0	 0.0	 0.0	 0.0	 0.0	 0.0	 0.0	 0.0	 0.0	 0.0	 0.0	 0.0;
	19	 0.0	 0.0	 0.0	 0.0	 1.04547	 100.0	 0	 1.2	 0.0	 0.0	 0.0	 0.0	 0.0	 0.0	 0.0	 0.0	 0.0	 0.0	 0.0	 0.0;
	22	 0.0	 0.0	 0.0	 0.0	 1.04782	 100.0	 0	 10.0	 0.0	 0.0	 0.0	 0.0	 0.0	 0.0	 0.0	 0.0	 0.0	 0.0	 0.0	 0.0;
	24	 0.0	 0.0	 0.0	 0.0	 1.06426	 100.0	 0	 16.1	 0.0	 0.0	 0.0	 0.0	 0.0	 0.0	 0.0	 0.0	 0.0	 0.0	 0.0	 0.0;
	24	 0.0	 0.0	 0.0	 0.0	 1.06426	 100.0	 0	 35.5	 0.0	 0.0	 0.0	 0.0	 0.0	 0.0	 0.0	 0.0	 0.0	 0.0	 0.0	 0.0;
	25	 36.0	 0.0	 0.0	 0.0	 1.0938	 100.0	 1	 36.0	 0.0	 0.0	 0.0	 0.0	 0.0	 0.0	 0.0	 0.0	 0.0	 0.0	 0.0	 0.0;
	25	 0.0	 0.0	 0.0	 0.0	 1.0938	 100.0	 0	 27.2	 0.0	 0.0	 0.0	 0.0	 0.0	 0.0	 0.0	 0.0	 0.0	 0.0	 0.0	 0.0;
	40	 0.0	 0.0	 0.0	 0.0	 1.06362	 100.0	 0	 8.0	 0.0	 0.0	 0.0	 0.0	 0.0	 0.0	 0.0	 0.0	 0.0	 0.0	 0.0	 0.0;
	47	 3.808	 -1.01	 9.5	 -10.0	 1.06349	 100.0	 1	 16.0	 0.0	 0.0	 0.0	 0.0	 0.0	 0.0	 0.0	 0.0	 0.0	 0.0	 0.0	 0.0;
	47	 3.808	 -1.01	 9.5	 -10.0	 1.06349	 100.0	 1	 16.0	 0.0	 0.0	 0.0	 0.0	 0.0	 0.0	 0.0	 0.0	 0.0	 0.0	 0.0	 0.0;
	48	 0.0	 0.0	 0.0	 0.0	 1.05554	 100.0	 0	 23.0	 0.0	 0.0	 0.0	 0.0	 0.0	 0.0	 0.0	 0.0	 0.0	 0.0	 0.0	 0.0;
	48	 0.0	 0.0	 0.0	 0.0	 1.05554	 100.0	 0	 24.0	 0.0	 0.0	 0.0	 0.0	 0.0	 0.0	 0.0	 0.0	 0.0	 0.0	 0.0	 0.0;
	57	 13.0	 0.9	 1.0	 0.9	 1.0561	 100.0	 1	 13.0	 0.0	 0.0	 0.0	 0.0	 0.0	 0.0	 0.0	 0.0	 0.0	 0.0	 0.0	 0.0;
	64	 0.0	 0.0	 0.0	 0.0	 1.08195	 100.0	 0	 24.0	 0.0	 0.0	 0.0	 0.0	 0.0	 0.0	 0.0	 0.0	 0.0	 0.0	 0.0	 0.0;
	64	 0.0	 0.0	 0.0	 0.0	 1.08195	 100.0	 0	 27.6	 0.0	 0.0	 0.0	 0.0	 0.0	 0.0	 0.0	 0.0	 0.0	 0.0	 0.0	 0.0;
	69	 0.0	 0.0	 0.0	 0.0	 1.05125	 100.0	 0	 30.04	 0.0	 0.0	 0.0	 0.0	 0.0	 0.0	 0.0	 0.0	 0.0	 0.0	 0.0	 0.0;
	70	 0.0	 0.0	 0.0	 0.0	 1.02848	 100.0	 0	 23.0	 0.0	 0.0	 0.0	 0.0	 0.0	 0.0	 0.0	 0.0	 0.0	 0.0	 0.0	 0.0;
	85	 6.68	 0.0	 0.0	 0.0	 1.05312	 100.0	 1	 6.68	 0.0	 0.0	 0.0	 0.0	 0.0	 0.0	 0.0	 0.0	 0.0	 0.0	 0.0	 0.0;
	86	 0.0	 0.0	 0.0	 0.0	 1.03888	 100.0	 0	 9.2	 0.0	 0.0	 0.0	 0.0	 0.0	 0.0	 0.0	 0.0	 0.0	 0.0	 0.0	 0.0;
	102	 46.0	 -1.243	 21.0	 -9.0	 1.05253	 100.0	 1	 46.0	 0.0	 0.0	 0.0	 0.0	 0.0	 0.0	 0.0	 0.0	 0.0	 0.0	 0.0	 0.0;
	122	 12.0	 5.0	 5.0	 -2.0	 1.03243	 100.0	 1	 12.0	 0.0	 0.0	 0.0	 0.0	 0.0	 0.0	 0.0	 0.0	 0.0	 0.0	 0.0	 0.0;
	124	 0.0	 0.0	 0.0	 0.0	 1.04934	 100.0	 0	 9.0	 0.0	 0.0	 0.0	 0.0	 0.0	 0.0	 0.0	 0.0	 0.0	 0.0	 0.0	 0.0;
	125	 26.0	 0.0	 0.0	 0.0	 1.05871	 100.0	 1	 26.0	 0.0	 0.0	 0.0	 0.0	 0.0	 0.0	 0.0	 0.0	 0.0	 0.0	 0.0	 0.0;
	125	 0.0	 0.0	 0.0	 0.0	 1.05871	 100.0	 0	 12.0	 0.0	 0.0	 0.0	 0.0	 0.0	 0.0	 0.0	 0.0	 0.0	 0.0	 0.0	 0.0;
	132	 17.0	 -3.0	 3.0	 -3.0	 1.07778	 100.0	 1	 17.0	 0.0	 0.0	 0.0	 0.0	 0.0	 0.0	 0.0	 0.0	 0.0	 0.0	 0.0	 0.0;
	132	 0.0	 1.0	 1.0	 -1.0	 1.07778	 100.0	 0	 4.0	 0.0	 0.0	 0.0	 0.0	 0.0	 0.0	 0.0	 0.0	 0.0	 0.0	 0.0	 0.0;
	132	 0.0	 1.67	 3.0	 -3.0	 1.07778	 100.0	 0	 14.0	 0.0	 0.0	 0.0	 0.0	 0.0	 0.0	 0.0	 0.0	 0.0	 0.0	 0.0	 0.0;
	132	 0.0	 1.67	 3.0	 -3.0	 1.07778	 100.0	 0	 14.0	 0.0	 0.0	 0.0	 0.0	 0.0	 0.0	 0.0	 0.0	 0.0	 0.0	 0.0	 0.0;
	137	 0.0	 0.25	 0.8	 -0.8	 1.03602	 100.0	 0	 18.0	 0.0	 0.0	 0.0	 0.0	 0.0	 0.0	 0.0	 0.0	 0.0	 0.0	 0.0	 0.0;
	137	 18.0	 -0.8	 0.8	 -0.8	 1.03602	 100.0	 1	 18.0	 0.0	 0.0	 0.0	 0.0	 0.0	 0.0	 0.0	 0.0	 0.0	 0.0	 0.0	 0.0;
	155	 0.0	 1.76	 1.76	 -1.76	 1.01924	 100.0	 0	 5.3	 0.0	 0.0	 0.0	 0.0	 0.0	 0.0	 0.0	 0.0	 0.0	 0.0	 0.0	 0.0;
	158	 0.0	 10.0	 10.0	 -13.0	 0.98662	 100.0	 1	 17.9	 0.0	 0.0	 0.0	 0.0	 0.0	 0.0	 0.0	 0.0	 0.0	 0.0	 0.0	 0.0;
	158	 0.0	 10.0	 10.0	 -13.0	 0.98662	 100.0	 1	 17.9	 0.0	 0.0	 0.0	 0.0	 0.0	 0.0	 0.0	 0.0	 0.0	 0.0	 0.0	 0.0;
	176	 0.0	 2.01	 10.0	 -4.0	 1.07365	 100.0	 0	 30.0	 0.0	 0.0	 0.0	 0.0	 0.0	 0.0	 0.0	 0.0	 0.0	 0.0	 0.0	 0.0;
	187	 0.0	 2.28	 8.0	 -8.0	 1.03591	 100.0	 0	 11.0	 0.0	 0.0	 0.0	 0.0	 0.0	 0.0	 0.0	 0.0	 0.0	 0.0	 0.0	 0.0;
	187	 0.0	 2.0	 2.0	 -2.0	 1.03591	 100.0	 0	 11.0	 0.0	 0.0	 0.0	 0.0	 0.0	 0.0	 0.0	 0.0	 0.0	 0.0	 0.0	 0.0;
	190	 0.0	 -0.23	 14.0	 -14.0	 0.96458	 100.0	 0	 30.0	 0.0	 0.0	 0.0	 0.0	 0.0	 0.0	 0.0	 0.0	 0.0	 0.0	 0.0	 0.0;
	192	 23.5	 0.0	 0.0	 0.0	 1.06126	 100.0	 1	 23.5	 0.0	 0.0	 0.0	 0.0	 0.0	 0.0	 0.0	 0.0	 0.0	 0.0	 0.0	 0.0;
	194	 11.313	 0.9	 1.0	 0.9	 1.06642	 100.0	 1	 15.0	 0.0	 0.0	 0.0	 0.0	 0.0	 0.0	 0.0	 0.0	 0.0	 0.0	 0.0	 0.0;
	194	 11.313	 0.9	 1.0	 0.9	 1.06642	 100.0	 1	 15.0	 0.0	 0.0	 0.0	 0.0	 0.0	 0.0	 0.0	 0.0	 0.0	 0.0	 0.0	 0.0;
	217	 0.0	 0.0	 0.0	 0.0	 1.02797	 100.0	 0	 11.94	 0.0	 0.0	 0.0	 0.0	 0.0	 0.0	 0.0	 0.0	 0.0	 0.0	 0.0	 0.0;
	224	 0.0	 1.99	 2.0	 0.0	 1.0736	 100.0	 0	 6.0	 0.0	 0.0	 0.0	 0.0	 0.0	 0.0	 0.0	 0.0	 0.0	 0.0	 0.0	 0.0;
	227	 0.0	 0.0	 0.0	 0.0	 1.02933	 100.0	 0	 7.5	 0.0	 0.0	 0.0	 0.0	 0.0	 0.0	 0.0	 0.0	 0.0	 0.0	 0.0	 0.0;
	236	 0.0	 0.0	 0.0	 0.0	 1.06935	 100.0	 0	 33.5	 0.0	 0.0	 0.0	 0.0	 0.0	 0.0	 0.0	 0.0	 0.0	 0.0	 0.0	 0.0;
	236	 0.0	 0.0	 0.0	 0.0	 1.06935	 100.0	 0	 24.3	 0.0	 0.0	 0.0	 0.0	 0.0	 0.0	 0.0	 0.0	 0.0	 0.0	 0.0	 0.0;
	238	 0.0	 0.0	 0.0	 0.0	 1.05067	 100.0	 0	 8.0	 0.0	 0.0	 0.0	 0.0	 0.0	 0.0	 0.0	 0.0	 0.0	 0.0	 0.0	 0.0;
	238	 0.0	 0.0	 0.0	 0.0	 1.05067	 100.0	 0	 36.0	 0.0	 0.0	 0.0	 0.0	 0.0	 0.0	 0.0	 0.0	 0.0	 0.0	 0.0	 0.0;
	246	 0.0	 0.0	 2.0	 0.0	 1.02631	 100.0	 0	 1.0	 0.0	 0.0	 0.0	 0.0	 0.0	 0.0	 0.0	 0.0	 0.0	 0.0	 0.0	 0.0;
	246	 0.0	 -0.18	 10.0	 -10.0	 1.02631	 100.0	 0	 31.0	 0.0	 0.0	 0.0	 0.0	 0.0	 0.0	 0.0	 0.0	 0.0	 0.0	 0.0	 0.0;
	246	 0.0	 -0.18	 10.0	 -10.0	 1.02631	 100.0	 0	 31.0	 0.0	 0.0	 0.0	 0.0	 0.0	 0.0	 0.0	 0.0	 0.0	 0.0	 0.0	 0.0;
	246	 0.0	 -0.18	 10.0	 -10.0	 1.02631	 100.0	 0	 31.0	 0.0	 0.0	 0.0	 0.0	 0.0	 0.0	 0.0	 0.0	 0.0	 0.0	 0.0	 0.0;
	256	 26.0	 6.083	 10.0	 -10.0	 1.05051	 100.0	 1	 26.0	 0.0	 0.0	 0.0	 0.0	 0.0	 0.0	 0.0	 0.0	 0.0	 0.0	 0.0	 0.0;
	256	 26.0	 6.083	 10.0	 -10.0	 1.05051	 100.0	 1	 26.0	 0.0	 0.0	 0.0	 0.0	 0.0	 0.0	 0.0	 0.0	 0.0	 0.0	 0.0	 0.0;
	258	 30.0	 0.9	 1.0	 0.9	 1.07924	 100.0	 1	 30.0	 0.0	 0.0	 0.0	 0.0	 0.0	 0.0	 0.0	 0.0	 0.0	 0.0	 0.0	 0.0;
	261	 0.0	 2.0	 4.0	 -4.0	 1.03864	 100.0	 0	 8.0	 0.0	 0.0	 0.0	 0.0	 0.0	 0.0	 0.0	 0.0	 0.0	 0.0	 0.0	 0.0;
	269	 0.0	 0.0	 0.0	 0.0	 1.01063	 100.0	 0	 12.6	 0.0	 0.0	 0.0	 0.0	 0.0	 0.0	 0.0	 0.0	 0.0	 0.0	 0.0	 0.0;
	282	 0.0	 -0.19	 6.1	 -6.2	 1.02631	 100.0	 0	 11.6	 0.0	 0.0	 0.0	 0.0	 0.0	 0.0	 0.0	 0.0	 0.0	 0.0	 0.0	 0.0;
	295	 0.0	 0.0	 0.0	 0.0	 1.06948	 100.0	 0	 25.3	 0.0	 0.0	 0.0	 0.0	 0.0	 0.0	 0.0	 0.0	 0.0	 0.0	 0.0	 0.0;
	296	 12.0	 0.0	 0.0	 0.0	 1.03416	 100.0	 1	 12.0	 0.0	 0.0	 0.0	 0.0	 0.0	 0.0	 0.0	 0.0	 0.0	 0.0	 0.0	 0.0;
	305	 15.0	 1.3	 9.0	 -9.0	 1.05905	 100.0	 1	 15.0	 0.0	 0.0	 0.0	 0.0	 0.0	 0.0	 0.0	 0.0	 0.0	 0.0	 0.0	 0.0;
	312	 25.8	 0.0	 0.0	 0.0	 1.0327	 100.0	 1	 25.8	 0.0	 0.0	 0.0	 0.0	 0.0	 0.0	 0.0	 0.0	 0.0	 0.0	 0.0	 0.0;
	312	 49.6	 0.0	 0.0	 0.0	 1.0327	 100.0	 1	 49.6	 0.0	 0.0	 0.0	 0.0	 0.0	 0.0	 0.0	 0.0	 0.0	 0.0	 0.0	 0.0;
	317	 0.0	 0.0	 0.0	 0.0	 1.05785	 100.0	 0	 0.0	 -7.0	 0.0	 0.0	 0.0	 0.0	 0.0	 0.0	 0.0	 0.0	 0.0	 0.0	 0.0;
	317	 0.0	 0.0	 0.0	 0.0	 1.05785	 100.0	 0	 0.0	 -7.0	 0.0	 0.0	 0.0	 0.0	 0.0	 0.0	 0.0	 0.0	 0.0	 0.0	 0.0;
	319	 0.0	 0.1	 0.1	 -0.1	 1.04803	 100.0	 0	 10.8	 0.0	 0.0	 0.0	 0.0	 0.0	 0.0	 0.0	 0.0	 0.0	 0.0	 0.0	 0.0;
	325	 0.0	 -0.04	 4.0	 -4.0	 1.01696	 100.0	 0	 11.0	 0.0	 0.0	 0.0	 0.0	 0.0	 0.0	 0.0	 0.0	 0.0	 0.0	 0.0	 0.0;
	332	 0.0	 0.68	 13.0	 -9.0	 0.99874	 100.0	 0	 25.0	 0.0	 0.0	 0.0	 0.0	 0.0	 0.0	 0.0	 0.0	 0.0	 0.0	 0.0	 0.0;
	333	 0.0	 4.58	 13.0	 -9.0	 1.01907	 100.0	 0	 25.0	 0.0	 0.0	 0.0	 0.0	 0.0	 0.0	 0.0	 0.0	 0.0	 0.0	 0.0	 0.0;
	336	 13.0	 3.318	 5.0	 -6.0	 1.02419	 100.0	 1	 13.0	 0.0	 0.0	 0.0	 0.0	 0.0	 0.0	 0.0	 0.0	 0.0	 0.0	 0.0	 0.0;
	338	 0.0	 1.58	 10.0	 -10.0	 1.07525	 100.0	 0	 21.0	 0.0	 0.0	 0.0	 0.0	 0.0	 0.0	 0.0	 0.0	 0.0	 0.0	 0.0	 0.0;
	338	 0.0	 0.1	 0.1	 -0.1	 1.07525	 100.0	 0	 2.0	 0.0	 0.0	 0.0	 0.0	 0.0	 0.0	 0.0	 0.0	 0.0	 0.0	 0.0	 0.0;
	345	 0.0	 0.0	 0.0	 0.0	 1.05515	 100.0	 0	 2.3	 0.0	 0.0	 0.0	 0.0	 0.0	 0.0	 0.0	 0.0	 0.0	 0.0	 0.0	 0.0;
	345	 19.5	 0.0	 0.0	 0.0	 1.05515	 100.0	 1	 19.5	 0.0	 0.0	 0.0	 0.0	 0.0	 0.0	 0.0	 0.0	 0.0	 0.0	 0.0	 0.0;
	348	 0.0	 0.0	 0.0	 0.0	 1.08382	 100.0	 0	 22.0	 0.0	 0.0	 0.0	 0.0	 0.0	 0.0	 0.0	 0.0	 0.0	 0.0	 0.0	 0.0;
	357	 0.0	 0.0	 0.0	 0.0	 1.01705	 100.0	 0	 12.0	 0.0	 0.0	 0.0	 0.0	 0.0	 0.0	 0.0	 0.0	 0.0	 0.0	 0.0	 0.0;
	357	 0.0	 0.0	 0.0	 0.0	 1.01705	 100.0	 0	 12.0	 0.0	 0.0	 0.0	 0.0	 0.0	 0.0	 0.0	 0.0	 0.0	 0.0	 0.0	 0.0;
	364	 130.0	 12.853	 59.0	 -26.0	 1.06322	 100.0	 1	 130.0	 0.0	 0.0	 0.0	 0.0	 0.0	 0.0	 0.0	 0.0	 0.0	 0.0	 0.0	 0.0;
	391	 0.0	 0.0	 0.0	 0.0	 1.05241	 100.0	 0	 2.7	 0.0	 0.0	 0.0	 0.0	 0.0	 0.0	 0.0	 0.0	 0.0	 0.0	 0.0	 0.0;
	409	 0.0	 0.73	 5.0	 -5.0	 0.9955	 100.0	 0	 18.0	 0.0	 0.0	 0.0	 0.0	 0.0	 0.0	 0.0	 0.0	 0.0	 0.0	 0.0	 0.0;
	411	 0.0	 0.0	 0.0	 0.0	 1.04091	 100.0	 0	 10.0	 0.0	 0.0	 0.0	 0.0	 0.0	 0.0	 0.0	 0.0	 0.0	 0.0	 0.0	 0.0;
	411	 0.0	 0.0	 0.0	 0.0	 1.04091	 100.0	 0	 11.5	 0.0	 0.0	 0.0	 0.0	 0.0	 0.0	 0.0	 0.0	 0.0	 0.0	 0.0	 0.0;
	431	 12.0	 0.0	 0.0	 0.0	 1.05458	 100.0	 1	 12.0	 0.0	 0.0	 0.0	 0.0	 0.0	 0.0	 0.0	 0.0	 0.0	 0.0	 0.0	 0.0;
	440	 0.0	 1.45	 10.96	 -11.99	 1.03464	 100.0	 0	 34.25	 0.0	 0.0	 0.0	 0.0	 0.0	 0.0	 0.0	 0.0	 0.0	 0.0	 0.0	 0.0;
	447	 25.0	 8.0	 8.0	 -9.0	 1.02523	 100.0	 1	 25.0	 0.0	 0.0	 0.0	 0.0	 0.0	 0.0	 0.0	 0.0	 0.0	 0.0	 0.0	 0.0;
	462	 0.0	 0.0	 0.0	 0.0	 1.04172	 100.0	 0	 2.4	 0.0	 0.0	 0.0	 0.0	 0.0	 0.0	 0.0	 0.0	 0.0	 0.0	 0.0	 0.0;
	462	 0.0	 0.0	 0.0	 0.0	 1.04172	 100.0	 0	 16.0	 0.0	 0.0	 0.0	 0.0	 0.0	 0.0	 0.0	 0.0	 0.0	 0.0	 0.0	 0.0;
	464	 27.0	 -0.05	 6.0	 -3.0	 1.16881	 100.0	 1	 27.0	 1.0	 0.0	 0.0	 0.0	 0.0	 0.0	 0.0	 0.0	 0.0	 0.0	 0.0	 0.0;
	464	 27.0	 -0.05	 6.0	 -3.0	 1.16881	 100.0	 1	 27.0	 1.0	 0.0	 0.0	 0.0	 0.0	 0.0	 0.0	 0.0	 0.0	 0.0	 0.0	 0.0;
	466	 0.0	 0.0	 19.0	 -10.0	 1.03971	 100.0	 0	 48.0	 1.0	 0.0	 0.0	 0.0	 0.0	 0.0	 0.0	 0.0	 0.0	 0.0	 0.0	 0.0;
	470	 0.0	 -0.57	 6.0	 -6.0	 1.04986	 100.0	 0	 10.0	 0.0	 0.0	 0.0	 0.0	 0.0	 0.0	 0.0	 0.0	 0.0	 0.0	 0.0	 0.0;
	470	 0.0	 -3.08	 5.4	 -5.4	 1.04986	 100.0	 0	 9.0	 0.0	 0.0	 0.0	 0.0	 0.0	 0.0	 0.0	 0.0	 0.0	 0.0	 0.0	 0.0;
	479	 0.0	 -0.09	 17.0	 -16.0	 1.02972	 100.0	 0	 27.0	 0.0	 0.0	 0.0	 0.0	 0.0	 0.0	 0.0	 0.0	 0.0	 0.0	 0.0	 0.0;
	479	 0.0	 -0.09	 17.0	 -16.0	 1.02972	 100.0	 0	 27.0	 0.0	 0.0	 0.0	 0.0	 0.0	 0.0	 0.0	 0.0	 0.0	 0.0	 0.0	 0.0;
	479	 0.0	 -0.09	 17.0	 -16.0	 1.02972	 100.0	 0	 27.0	 0.0	 0.0	 0.0	 0.0	 0.0	 0.0	 0.0	 0.0	 0.0	 0.0	 0.0	 0.0;
	491	 0.0	 -0.75	 8.0	 -17.0	 1.07111	 100.0	 0	 23.4	 0.0	 0.0	 0.0	 0.0	 0.0	 0.0	 0.0	 0.0	 0.0	 0.0	 0.0	 0.0;
	508	 0.0	 1.72	 2.0	 -2.0	 1.03565	 100.0	 0	 4.0	 0.0	 0.0	 0.0	 0.0	 0.0	 0.0	 0.0	 0.0	 0.0	 0.0	 0.0	 0.0;
	519	 0.0	 0.0	 0.0	 0.0	 1.00913	 100.0	 0	 10.0	 0.0	 0.0	 0.0	 0.0	 0.0	 0.0	 0.0	 0.0	 0.0	 0.0	 0.0	 0.0;
	520	 0.0	 0.0	 0.0	 0.0	 1.04715	 100.0	 0	 12.0	 0.0	 0.0	 0.0	 0.0	 0.0	 0.0	 0.0	 0.0	 0.0	 0.0	 0.0	 0.0;
	530	 8.0	 -1.392	 4.8	 -4.8	 1.06349	 100.0	 1	 8.0	 0.0	 0.0	 0.0	 0.0	 0.0	 0.0	 0.0	 0.0	 0.0	 0.0	 0.0	 0.0;
	530	 8.0	 -1.392	 4.8	 -4.8	 1.06349	 100.0	 1	 8.0	 0.0	 0.0	 0.0	 0.0	 0.0	 0.0	 0.0	 0.0	 0.0	 0.0	 0.0	 0.0;
	530	 8.0	 -1.392	 4.8	 -4.8	 1.06349	 100.0	 1	 8.0	 0.0	 0.0	 0.0	 0.0	 0.0	 0.0	 0.0	 0.0	 0.0	 0.0	 0.0	 0.0;
	537	 0.0	 0.0	 0.0	 0.0	 1.05021	 100.0	 0	 12.0	 0.0	 0.0	 0.0	 0.0	 0.0	 0.0	 0.0	 0.0	 0.0	 0.0	 0.0	 0.0;
	537	 24.0	 0.0	 0.0	 0.0	 1.05021	 100.0	 1	 24.0	 0.0	 0.0	 0.0	 0.0	 0.0	 0.0	 0.0	 0.0	 0.0	 0.0	 0.0	 0.0;
	546	 0.0	 1.9	 2.0	 1.9	 1.03113	 100.0	 1	 9.0	 0.0	 0.0	 0.0	 0.0	 0.0	 0.0	 0.0	 0.0	 0.0	 0.0	 0.0	 0.0;
	548	 0.0	 2.0	 2.0	 0.0	 1.03426	 100.0	 0	 12.0	 0.0	 0.0	 0.0	 0.0	 0.0	 0.0	 0.0	 0.0	 0.0	 0.0	 0.0	 0.0;
	570	 0.0	 0.0	 0.0	 0.0	 1.00736	 100.0	 0	 12.0	 0.0	 0.0	 0.0	 0.0	 0.0	 0.0	 0.0	 0.0	 0.0	 0.0	 0.0	 0.0;
	570	 0.0	 0.0	 0.0	 0.0	 1.00736	 100.0	 0	 30.0	 0.0	 0.0	 0.0	 0.0	 0.0	 0.0	 0.0	 0.0	 0.0	 0.0	 0.0	 0.0;
	570	 0.0	 0.0	 0.0	 0.0	 1.00736	 100.0	 0	 11.5	 0.0	 0.0	 0.0	 0.0	 0.0	 0.0	 0.0	 0.0	 0.0	 0.0	 0.0	 0.0;
	583	 16.0	 6.049	 7.0	 -4.0	 1.02748	 100.0	 1	 16.0	 0.0	 0.0	 0.0	 0.0	 0.0	 0.0	 0.0	 0.0	 0.0	 0.0	 0.0	 0.0;
	585	 0.0	 0.0	 0.0	 0.0	 1.00058	 100.0	 0	 9.0	 0.0	 0.0	 0.0	 0.0	 0.0	 0.0	 0.0	 0.0	 0.0	 0.0	 0.0	 0.0;
	586	 0.0	 4.61	 5.7	 -5.7	 1.05375	 100.0	 0	 9.5	 0.0	 0.0	 0.0	 0.0	 0.0	 0.0	 0.0	 0.0	 0.0	 0.0	 0.0	 0.0;
	589	 0.0	 0.1	 0.1	 -0.1	 1.04022	 100.0	 0	 1.0	 0.0	 0.0	 0.0	 0.0	 0.0	 0.0	 0.0	 0.0	 0.0	 0.0	 0.0	 0.0;
	593	 0.0	 1.34	 10.0	 -10.0	 1.02782	 100.0	 0	 21.0	 0.0	 0.0	 0.0	 0.0	 0.0	 0.0	 0.0	 0.0	 0.0	 0.0	 0.0	 0.0;
	600	 0.0	 0.37	 1.0	 -1.0	 0.98493	 100.0	 0	 6.1	 0.0	 0.0	 0.0	 0.0	 0.0	 0.0	 0.0	 0.0	 0.0	 0.0	 0.0	 0.0;
	610	 45.0	 38.659	 45.0	 -45.0	 1.06792	 100.0	 1	 45.0	 0.0	 0.0	 0.0	 0.0	 0.0	 0.0	 0.0	 0.0	 0.0	 0.0	 0.0	 0.0;
	610	 0.0	 -0.16	 45.0	 -45.0	 1.06792	 100.0	 0	 45.0	 0.0	 0.0	 0.0	 0.0	 0.0	 0.0	 0.0	 0.0	 0.0	 0.0	 0.0	 0.0;
	612	 0.0	 0.0	 0.0	 0.0	 1.02607	 100.0	 0	 12.0	 0.0	 0.0	 0.0	 0.0	 0.0	 0.0	 0.0	 0.0	 0.0	 0.0	 0.0	 0.0;
	612	 0.0	 0.0	 0.0	 0.0	 1.02607	 100.0	 0	 12.0	 0.0	 0.0	 0.0	 0.0	 0.0	 0.0	 0.0	 0.0	 0.0	 0.0	 0.0	 0.0;
	612	 0.0	 0.0	 0.0	 0.0	 1.02607	 100.0	 0	 12.0	 0.0	 0.0	 0.0	 0.0	 0.0	 0.0	 0.0	 0.0	 0.0	 0.0	 0.0	 0.0;
	613	 0.0	 0.0	 0.0	 0.0	 1.03534	 100.0	 0	 35.0	 0.0	 0.0	 0.0	 0.0	 0.0	 0.0	 0.0	 0.0	 0.0	 0.0	 0.0	 0.0;
	613	 0.0	 0.0	 0.0	 0.0	 1.03534	 100.0	 0	 11.5	 0.0	 0.0	 0.0	 0.0	 0.0	 0.0	 0.0	 0.0	 0.0	 0.0	 0.0	 0.0;
	624	 -8.3	 0.473	 8.3	 -8.3	 1.08889	 100.0	 1	 8.3	 -8.3	 0.0	 0.0	 0.0	 0.0	 0.0	 0.0	 0.0	 0.0	 0.0	 0.0	 0.0;
	633	 0.0	 -4.7	 4.0	 -4.7	 1.05211	 100.0	 0	 7.3	 0.0	 0.0	 0.0	 0.0	 0.0	 0.0	 0.0	 0.0	 0.0	 0.0	 0.0	 0.0;
	636	 0.0	 0.5	 7.0	 0.0	 1.03111	 100.0	 0	 15.0	 0.0	 0.0	 0.0	 0.0	 0.0	 0.0	 0.0	 0.0	 0.0	 0.0	 0.0	 0.0;
	636	 15.0	 0.0	 7.0	 0.0	 1.03111	 100.0	 1	 15.0	 0.0	 0.0	 0.0	 0.0	 0.0	 0.0	 0.0	 0.0	 0.0	 0.0	 0.0	 0.0;
	641	 239.0	 -75.0	 80.0	 -75.0	 1.07963	 100.0	 1	 239.0	 0.0	 0.0	 0.0	 0.0	 0.0	 0.0	 0.0	 0.0	 0.0	 0.0	 0.0	 0.0;
	652	 0.0	 1.32	 7.0	 0.0	 1.07359	 100.0	 0	 7.0	 0.0	 0.0	 0.0	 0.0	 0.0	 0.0	 0.0	 0.0	 0.0	 0.0	 0.0	 0.0;
	670	 12.0	 0.0	 0.0	 0.0	 1.04377	 100.0	 1	 12.0	 0.0	 0.0	 0.0	 0.0	 0.0	 0.0	 0.0	 0.0	 0.0	 0.0	 0.0	 0.0;
	670	 12.0	 0.0	 0.0	 0.0	 1.04377	 100.0	 1	 12.0	 0.0	 0.0	 0.0	 0.0	 0.0	 0.0	 0.0	 0.0	 0.0	 0.0	 0.0	 0.0;
	671	 0.0	 0.0	 0.0	 0.0	 1.05366	 100.0	 0	 7.5	 0.0	 0.0	 0.0	 0.0	 0.0	 0.0	 0.0	 0.0	 0.0	 0.0	 0.0	 0.0;
	671	 24.0	 0.0	 0.0	 0.0	 1.05366	 100.0	 1	 24.0	 0.0	 0.0	 0.0	 0.0	 0.0	 0.0	 0.0	 0.0	 0.0	 0.0	 0.0	 0.0;
	679	 0.0	 0.0	 0.0	 0.0	 1.01555	 100.0	 0	 6.6	 0.0	 0.0	 0.0	 0.0	 0.0	 0.0	 0.0	 0.0	 0.0	 0.0	 0.0	 0.0;
	680	 0.0	 0.0	 0.0	 0.0	 1.06294	 100.0	 0	 12.0	 0.0	 0.0	 0.0	 0.0	 0.0	 0.0	 0.0	 0.0	 0.0	 0.0	 0.0	 0.0;
	684	 0.0	 0.29	 6.0	 -5.0	 0.942	 100.0	 1	 9.0	 0.0	 0.0	 0.0	 0.0	 0.0	 0.0	 0.0	 0.0	 0.0	 0.0	 0.0	 0.0;
	684	 0.0	 0.29	 6.0	 -5.0	 0.942	 100.0	 1	 9.0	 0.0	 0.0	 0.0	 0.0	 0.0	 0.0	 0.0	 0.0	 0.0	 0.0	 0.0	 0.0;
	684	 0.0	 1.87	 8.0	 -5.0	 0.942	 100.0	 0	 11.0	 0.0	 0.0	 0.0	 0.0	 0.0	 0.0	 0.0	 0.0	 0.0	 0.0	 0.0	 0.0;
	684	 0.0	 1.207	 8.0	 -5.0	 0.942	 100.0	 1	 11.0	 0.0	 0.0	 0.0	 0.0	 0.0	 0.0	 0.0	 0.0	 0.0	 0.0	 0.0	 0.0;
	695	 0.0	 0.0	 0.0	 0.0	 1.07002	 100.0	 0	 32.35	 0.0	 0.0	 0.0	 0.0	 0.0	 0.0	 0.0	 0.0	 0.0	 0.0	 0.0	 0.0;
	695	 0.0	 0.0	 0.0	 0.0	 1.07002	 100.0	 0	 12.0	 0.0	 0.0	 0.0	 0.0	 0.0	 0.0	 0.0	 0.0	 0.0	 0.0	 0.0	 0.0;
	695	 0.0	 0.0	 0.0	 0.0	 1.07002	 100.0	 0	 21.0	 0.0	 0.0	 0.0	 0.0	 0.0	 0.0	 0.0	 0.0	 0.0	 0.0	 0.0	 0.0;
	699	 37.0	 2.796	 15.0	 -17.0	 1.06494	 100.0	 1	 37.0	 0.0	 0.0	 0.0	 0.0	 0.0	 0.0	 0.0	 0.0	 0.0	 0.0	 0.0	 0.0;
	699	 37.0	 2.796	 15.0	 -17.0	 1.06494	 100.0	 1	 37.0	 0.0	 0.0	 0.0	 0.0	 0.0	 0.0	 0.0	 0.0	 0.0	 0.0	 0.0	 0.0;
	698	 37.0	 3.314	 15.0	 -15.0	 1.06805	 100.0	 1	 37.0	 0.0	 0.0	 0.0	 0.0	 0.0	 0.0	 0.0	 0.0	 0.0	 0.0	 0.0	 0.0;
	698	 37.0	 3.314	 15.0	 -15.0	 1.06805	 100.0	 1	 37.0	 0.0	 0.0	 0.0	 0.0	 0.0	 0.0	 0.0	 0.0	 0.0	 0.0	 0.0	 0.0;
	697	 37.0	 3.314	 15.0	 -17.0	 1.06805	 100.0	 1	 37.0	 0.0	 0.0	 0.0	 0.0	 0.0	 0.0	 0.0	 0.0	 0.0	 0.0	 0.0	 0.0;
	697	 37.0	 3.314	 15.0	 -17.0	 1.06805	 100.0	 1	 37.0	 0.0	 0.0	 0.0	 0.0	 0.0	 0.0	 0.0	 0.0	 0.0	 0.0	 0.0	 0.0;
	705	 0.0	 2.0	 2.0	 -2.0	 0.94253	 100.0	 0	 4.0	 0.0	 0.0	 0.0	 0.0	 0.0	 0.0	 0.0	 0.0	 0.0	 0.0	 0.0	 0.0;
	705	 0.0	 2.5	 2.5	 -2.5	 0.94253	 100.0	 0	 4.0	 0.0	 0.0	 0.0	 0.0	 0.0	 0.0	 0.0	 0.0	 0.0	 0.0	 0.0	 0.0;
	705	 0.0	 3.0	 3.0	 -3.0	 0.94253	 100.0	 1	 5.7	 0.0	 0.0	 0.0	 0.0	 0.0	 0.0	 0.0	 0.0	 0.0	 0.0	 0.0	 0.0;
	705	 0.0	 0.84	 6.0	 -5.0	 0.94253	 100.0	 0	 8.5	 0.0	 0.0	 0.0	 0.0	 0.0	 0.0	 0.0	 0.0	 0.0	 0.0	 0.0	 0.0;
	732	 0.0	 0.0	 0.0	 0.0	 1.0438	 100.0	 0	 19.5	 0.0	 0.0	 0.0	 0.0	 0.0	 0.0	 0.0	 0.0	 0.0	 0.0	 0.0	 0.0;
	733	 39.0	 5.478	 18.0	 -18.0	 1.06083	 100.0	 1	 39.0	 0.0	 0.0	 0.0	 0.0	 0.0	 0.0	 0.0	 0.0	 0.0	 0.0	 0.0	 0.0;
	734	 0.0	 0.0	 0.0	 0.0	 1.02279	 100.0	 0	 11.5	 0.0	 0.0	 0.0	 0.0	 0.0	 0.0	 0.0	 0.0	 0.0	 0.0	 0.0	 0.0;
	734	 0.0	 0.0	 0.0	 0.0	 1.02279	 100.0	 0	 32.0	 0.0	 0.0	 0.0	 0.0	 0.0	 0.0	 0.0	 0.0	 0.0	 0.0	 0.0	 0.0;
	736	 0.0	 0.0	 0.0	 0.0	 1.07348	 100.0	 0	 12.0	 0.0	 0.0	 0.0	 0.0	 0.0	 0.0	 0.0	 0.0	 0.0	 0.0	 0.0	 0.0;
	736	 32.0	 0.0	 0.0	 0.0	 1.07348	 100.0	 1	 32.0	 0.0	 0.0	 0.0	 0.0	 0.0	 0.0	 0.0	 0.0	 0.0	 0.0	 0.0	 0.0;
	737	 0.0	 0.1	 0.1	 -0.1	 1.02612	 100.0	 0	 5.0	 0.0	 0.0	 0.0	 0.0	 0.0	 0.0	 0.0	 0.0	 0.0	 0.0	 0.0	 0.0;
	744	 0.0	 3.85	 4.22	 -3.7	 1.05781	 100.0	 0	 6.7	 0.0	 0.0	 0.0	 0.0	 0.0	 0.0	 0.0	 0.0	 0.0	 0.0	 0.0	 0.0;
	744	 0.0	 4.02	 4.39	 -3.0	 1.05781	 100.0	 0	 5.6	 0.0	 0.0	 0.0	 0.0	 0.0	 0.0	 0.0	 0.0	 0.0	 0.0	 0.0	 0.0;
	745	 26.6	 -0.721	 15.0	 -15.0	 1.06311	 100.0	 1	 26.6	 0.0	 0.0	 0.0	 0.0	 0.0	 0.0	 0.0	 0.0	 0.0	 0.0	 0.0	 0.0;
	746	 7.0	 2.0	 2.0	 -2.0	 1.02616	 100.0	 1	 7.0	 1.0	 0.0	 0.0	 0.0	 0.0	 0.0	 0.0	 0.0	 0.0	 0.0	 0.0	 0.0;
	751	 0.0	 -0.18	 3.0	 -3.0	 1.02631	 100.0	 0	 5.0	 -5.0	 0.0	 0.0	 0.0	 0.0	 0.0	 0.0	 0.0	 0.0	 0.0	 0.0	 0.0;
	758	 0.0	 -2.68	 8.0	 -8.0	 1.07539	 100.0	 0	 23.5	 0.0	 0.0	 0.0	 0.0	 0.0	 0.0	 0.0	 0.0	 0.0	 0.0	 0.0	 0.0;
	760	 0.0	 0.0	 0.0	 0.0	 1.06491	 100.0	 0	 6.0	 0.0	 0.0	 0.0	 0.0	 0.0	 0.0	 0.0	 0.0	 0.0	 0.0	 0.0	 0.0;
	761	 0.0	 0.0	 0.0	 0.0	 1.05928	 100.0	 0	 6.0	 0.0	 0.0	 0.0	 0.0	 0.0	 0.0	 0.0	 0.0	 0.0	 0.0	 0.0	 0.0;
	760	 37.5	 0.676	 10.0	 -8.42	 1.06491	 100.0	 1	 37.5	 0.0	 0.0	 0.0	 0.0	 0.0	 0.0	 0.0	 0.0	 0.0	 0.0	 0.0	 0.0;
	761	 37.5	 3.542	 10.0	 -6.0	 1.05928	 100.0	 1	 37.5	 0.0	 0.0	 0.0	 0.0	 0.0	 0.0	 0.0	 0.0	 0.0	 0.0	 0.0	 0.0;
	762	 0.0	 0.06	 0.06	 -0.06	 0.58367	 100.0	 0	 0.6	 0.0	 0.0	 0.0	 0.0	 0.0	 0.0	 0.0	 0.0	 0.0	 0.0	 0.0	 0.0;
	762	 0.0	 1.73	 2.61	 -2.61	 0.58367	 100.0	 0	 26.1	 0.0	 0.0	 0.0	 0.0	 0.0	 0.0	 0.0	 0.0	 0.0	 0.0	 0.0	 0.0;
	762	 0.0	 0.16	 0.16	 -0.16	 0.58367	 100.0	 0	 1.6	 0.0	 0.0	 0.0	 0.0	 0.0	 0.0	 0.0	 0.0	 0.0	 0.0	 0.0	 0.0;
	762	 0.0	 0.11	 0.11	 -0.11	 0.58367	 100.0	 0	 1.1	 0.0	 0.0	 0.0	 0.0	 0.0	 0.0	 0.0	 0.0	 0.0	 0.0	 0.0	 0.0;
	766	 0.0	 0.0	 0.0	 0.0	 1.046	 100.0	 0	 37.5	 0.0	 0.0	 0.0	 0.0	 0.0	 0.0	 0.0	 0.0	 0.0	 0.0	 0.0	 0.0;
	766	 0.0	 0.0	 0.0	 0.0	 1.046	 100.0	 0	 34.0	 0.0	 0.0	 0.0	 0.0	 0.0	 0.0	 0.0	 0.0	 0.0	 0.0	 0.0	 0.0;
	786	 0.0	 -0.79	 26.0	 -26.0	 1.05906	 100.0	 0	 8.0	 0.0	 0.0	 0.0	 0.0	 0.0	 0.0	 0.0	 0.0	 0.0	 0.0	 0.0	 0.0;
	786	 0.0	 -0.79	 26.0	 -26.0	 1.05906	 100.0	 0	 15.0	 0.0	 0.0	 0.0	 0.0	 0.0	 0.0	 0.0	 0.0	 0.0	 0.0	 0.0	 0.0;
	787	 0.0	 -0.71	 26.0	 -26.0	 1.06232	 100.0	 0	 19.0	 0.0	 0.0	 0.0	 0.0	 0.0	 0.0	 0.0	 0.0	 0.0	 0.0	 0.0	 0.0;
	801	 31.0	 2.973	 15.0	 -17.0	 1.06372	 100.0	 1	 31.0	 0.0	 0.0	 0.0	 0.0	 0.0	 0.0	 0.0	 0.0	 0.0	 0.0	 0.0	 0.0;
	801	 31.0	 2.973	 15.0	 -17.0	 1.06372	 100.0	 1	 31.0	 0.0	 0.0	 0.0	 0.0	 0.0	 0.0	 0.0	 0.0	 0.0	 0.0	 0.0	 0.0;
	802	 31.0	 3.378	 15.0	 -17.0	 1.06285	 100.0	 1	 31.0	 0.0	 0.0	 0.0	 0.0	 0.0	 0.0	 0.0	 0.0	 0.0	 0.0	 0.0	 0.0;
	802	 31.0	 3.378	 15.0	 -17.0	 1.06285	 100.0	 1	 31.0	 0.0	 0.0	 0.0	 0.0	 0.0	 0.0	 0.0	 0.0	 0.0	 0.0	 0.0	 0.0;
	803	 31.0	 3.378	 15.0	 -17.0	 1.06285	 100.0	 1	 31.0	 0.0	 0.0	 0.0	 0.0	 0.0	 0.0	 0.0	 0.0	 0.0	 0.0	 0.0	 0.0;
	803	 31.0	 3.378	 15.0	 -17.0	 1.06285	 100.0	 1	 31.0	 0.0	 0.0	 0.0	 0.0	 0.0	 0.0	 0.0	 0.0	 0.0	 0.0	 0.0	 0.0;
	807	 40.8	 0.0	 0.0	 0.0	 1.0507	 100.0	 1	 40.8	 0.0	 0.0	 0.0	 0.0	 0.0	 0.0	 0.0	 0.0	 0.0	 0.0	 0.0	 0.0;
	815	 32.0	 6.0	 6.0	 -9.0	 1.05154	 100.0	 1	 32.0	 1.0	 0.0	 0.0	 0.0	 0.0	 0.0	 0.0	 0.0	 0.0	 0.0	 0.0	 0.0;
	815	 0.0	 0.0	 6.0	 -9.0	 1.05154	 100.0	 0	 32.0	 1.0	 0.0	 0.0	 0.0	 0.0	 0.0	 0.0	 0.0	 0.0	 0.0	 0.0	 0.0;
	816	 32.0	 3.833	 6.0	 -9.0	 1.06052	 100.0	 1	 32.0	 1.0	 0.0	 0.0	 0.0	 0.0	 0.0	 0.0	 0.0	 0.0	 0.0	 0.0	 0.0;
	816	 32.0	 3.833	 6.0	 -9.0	 1.06052	 100.0	 1	 32.0	 1.0	 0.0	 0.0	 0.0	 0.0	 0.0	 0.0	 0.0	 0.0	 0.0	 0.0	 0.0;
	816	 32.0	 3.833	 6.0	 -9.0	 1.06052	 100.0	 1	 32.0	 1.0	 0.0	 0.0	 0.0	 0.0	 0.0	 0.0	 0.0	 0.0	 0.0	 0.0	 0.0;
	816	 32.0	 3.833	 6.0	 -9.0	 1.06052	 100.0	 1	 32.0	 1.0	 0.0	 0.0	 0.0	 0.0	 0.0	 0.0	 0.0	 0.0	 0.0	 0.0	 0.0;
	826	 0.0	 1.48	 3.0	 -3.0	 1.03443	 100.0	 0	 13.0	 0.0	 0.0	 0.0	 0.0	 0.0	 0.0	 0.0	 0.0	 0.0	 0.0	 0.0	 0.0;
	826	 0.0	 3.0	 3.0	 -3.0	 1.03443	 100.0	 0	 7.0	 0.0	 0.0	 0.0	 0.0	 0.0	 0.0	 0.0	 0.0	 0.0	 0.0	 0.0	 0.0;
	829	 0.0	 0.0	 0.0	 0.0	 1.07509	 100.0	 0	 2.4	 0.0	 0.0	 0.0	 0.0	 0.0	 0.0	 0.0	 0.0	 0.0	 0.0	 0.0	 0.0;
	830	 27.0	 -5.596	 10.0	 -10.0	 1.07067	 100.0	 1	 27.0	 0.0	 0.0	 0.0	 0.0	 0.0	 0.0	 0.0	 0.0	 0.0	 0.0	 0.0	 0.0;
	831	 0.0	 -0.33	 10.0	 -10.0	 0.98632	 100.0	 0	 20.0	 0.0	 0.0	 0.0	 0.0	 0.0	 0.0	 0.0	 0.0	 0.0	 0.0	 0.0	 0.0;
	833	 0.0	 -0.46	 3.14	 -3.43	 1.06813	 100.0	 0	 9.8	 0.0	 0.0	 0.0	 0.0	 0.0	 0.0	 0.0	 0.0	 0.0	 0.0	 0.0	 0.0;
...
];

%% generator cost data
%	2	startup	shutdown	n	c(n-1)	...	c0
mpc.gencost = [
	2	 0.0	 0.0	 3	   0.000000	   2.000000	   0.000000;
	2	 0.0	 0.0	 3	   0.000000	   2.000000	   0.000000;
	2	 0.0	 0.0	 3	   0.000000	   2.000000	   0.000000;
	2	 0.0	 0.0	 3	   0.000000	   1.000000	   0.000000;
	2	 0.0	 0.0	 3	   0.000000	   2.000000	   0.000000;
	2	 0.0	 0.0	 3	   0.000000	   2.000000	   0.000000;
	2	 0.0	 0.0	 3	   0.000000	   2.000000	   0.000000;
	2	 0.0	 0.0	 3	   0.000000	   2.000000	   0.000000;
	2	 0.0	 0.0	 3	   0.000000	   2.000000	   0.000000;
	2	 0.0	 0.0	 3	   0.000000	   2.000000	   0.000000;
	2	 0.0	 0.0	 3	   0.000000	   1.000000	   0.000000;
	2	 0.0	 0.0	 3	   0.000000	   2.000000	   0.000000;
	2	 0.0	 0.0	 3	   0.000000	   2.000000	   0.000000;
	2	 0.0	 0.0	 3	   0.000000	   1.000000	   0.000000;
	2	 0.0	 0.0	 3	   0.000000	   1.000000	   0.000000;
	2	 0.0	 0.0	 3	   0.000000	   2.000000	   0.000000;
	2	 0.0	 0.0	 3	   0.000000	   2.000000	   0.000000;
	2	 0.0	 0.0	 3	   0.000000	   1.000000	   0.000000;
	2	 0.0	 0.0	 3	   0.000000	   2.000000	   0.000000;
	2	 0.0	 0.0	 3	   0.000000	   2.000000	   0.000000;
	2	 0.0	 0.0	 3	   0.000000	   2.000000	   0.000000;
	2	 0.0	 0.0	 3	   0.000000	   2.000000	   0.000000;
	2	 0.0	 0.0	 3	   0.000000	   1.000000	   0.000000;
	2	 0.0	 0.0	 3	   0.000000	   2.000000	   0.000000;
	2	 0.0	 0.0	 3	   0.000000	   1.000000	   0.000000;
	2	 0.0	 0.0	 3	   0.000000	   1.000000	   0.000000;
	2	 0.0	 0.0	 3	   0.000000	   2.000000	   0.000000;
	2	 0.0	 0.0	 3	   0.000000	   1.000000	   0.000000;
	2	 0.0	 0.0	 3	   0.000000	   2.000000	   0.000000;
	2	 0.0	 0.0	 3	   0.000000	   1.000000	   0.000000;
	2	 0.0	 0.0	 3	   0.000000	   2.000000	   0.000000;
	2	 0.0	 0.0	 3	   0.000000	   2.000000	   0.000000;
	2	 0.0	 0.0	 3	   0.000000	   2.000000	   0.000000;
	2	 0.0	 0.0	 3	   0.000000	   2.000000	   0.000000;
	2	 0.0	 0.0	 3	   0.000000	   1.000000	   0.000000;
	2	 0.0	 0.0	 3	   0.000000	   2.000000	   0.000000;
	2	 0.0	 0.0	 3	   0.000000	   1.000000	   0.000000;
	2	 0.0	 0.0	 3	   0.000000	   1.000000	   0.000000;
	2	 0.0	 0.0	 3	   0.000000	   2.000000	   0.000000;
	2	 0.0	 0.0	 3	   0.000000	   2.000000	   0.000000;
	2	 0.0	 0.0	 3	   0.000000	   2.000000	   0.000000;
	2	 0.0	 0.0	 3	   0.000000	   2.000000	   0.000000;
	2	 0.0	 0.0	 3	   0.000000	   1.000000	   0.000000;
	2	 0.0	 0.0	 3	   0.000000	   1.000000	   0.000000;
	2	 0.0	 0.0	 3	   0.000000	   1.000000	   0.000000;
	2	 0.0	 0.0	 3	   0.000000	   2.000000	   0.000000;
	2	 0.0	 0.0	 3	   0.000000	   2.000000	   0.000000;
	2	 0.0	 0.0	 3	   0.000000	   2.000000	   0.000000;
	2	 0.0	 0.0	 3	   0.000000	   2.000000	   0.000000;
	2	 0.0	 0.0	 3	   0.000000	   2.000000	   0.000000;
	2	 0.0	 0.0	 3	   0.000000	   2.000000	   0.000000;
	2	 0.0	 0.0	 3	   0.000000	   2.000000	   0.000000;
	2	 0.0	 0.0	 3	   0.000000	   2.000000	   0.000000;
	2	 0.0	 0.0	 3	   0.000000	   2.000000	   0.000000;
	2	 0.0	 0.0	 3	   0.000000	   2.000000	   0.000000;
	2	 0.0	 0.0	 3	   0.000000	   2.000000	   0.000000;
	2	 0.0	 0.0	 3	   0.000000	   1.000000	   0.000000;
	2	 0.0	 0.0	 3	   0.000000	   1.000000	   0.000000;
	2	 0.0	 0.0	 3	   0.000000	   1.000000	   0.000000;
	2	 0.0	 0.0	 3	   0.000000	   2.000000	   0.000000;
	2	 0.0	 0.0	 3	   0.000000	   2.000000	   0.000000;
	2	 0.0	 0.0	 3	   0.000000	   2.000000	   0.000000;
	2	 0.0	 0.0	 3	   0.000000	   2.000000	   0.000000;
	2	 0.0	 0.0	 3	   0.000000	   1.000000	   0.000000;
	2	 0.0	 0.0	 3	   0.000000	   1.000000	   0.000000;
	2	 0.0	 0.0	 3	   0.000000	   1.000000	   0.000000;
	2	 0.0	 0.0	 3	   0.000000	   1.000000	   0.000000;
	2	 0.0	 0.0	 3	   0.000000	   2.000000	   0.000000;
	2	 0.0	 0.0	 3	   0.000000	   2.000000	   0.000000;
	2	 0.0	 0.0	 3	   0.000000	   2.000000	   0.000000;
	2	 0.0	 0.0	 3	   0.000000	   2.000000	   0.000000;
	2	 0.0	 0.0	 3	   0.000000	   2.000000	   0.000000;
	2	 0.0	 0.0	 3	   0.000000	   2.000000	   0.000000;
	2	 0.0	 0.0	 3	   0.000000	   1.000000	   0.000000;
	2	 0.0	 0.0	 3	   0.000000	   2.000000	   0.000000;
	2	 0.0	 0.0	 3	   0.000000	   2.000000	   0.000000;
	2	 0.0	 0.0	 3	   0.000000	   2.000000	   0.000000;
	2	 0.0	 0.0	 3	   0.000000	   1.000000	   0.000000;
	2	 0.0	 0.0	 3	   0.000000	   2.000000	   0.000000;
	2	 0.0	 0.0	 3	   0.000000	   2.000000	   0.000000;
	2	 0.0	 0.0	 3	   0.000000	   2.000000	   0.000000;
	2	 0.0	 0.0	 3	   0.000000	   1.000000	   0.000000;
	2	 0.0	 0.0	 3	   0.000000	   2.000000	   0.000000;
	2	 0.0	 0.0	 3	   0.000000	   2.000000	   0.000000;
	2	 0.0	 0.0	 3	   0.000000	   2.000000	   0.000000;
	2	 0.0	 0.0	 3	   0.000000	   2.000000	   0.000000;
	2	 0.0	 0.0	 3	   0.000000	   1.000000	   0.000000;
	2	 0.0	 0.0	 3	   0.000000	   2.000000	   0.000000;
	2	 0.0	 0.0	 3	   0.000000	   1.000000	   0.000000;
	2	 0.0	 0.0	 3	   0.000000	   2.000000	   0.000000;
	2	 0.0	 0.0	 3	   0.000000	   2.000000	   0.000000;
	2	 0.0	 0.0	 3	   0.000000	   1.000000	   0.000000;
	2	 0.0	 0.0	 3	   0.000000	   1.000000	   0.000000;
	2	 0.0	 0.0	 3	   0.000000	   2.000000	   0.000000;
	2	 0.0	 0.0	 3	   0.000000	   2.000000	   0.000000;
	2	 0.0	 0.0	 3	   0.000000	   2.000000	   0.000000;
	2	 0.0	 0.0	 3	   0.000000	   2.000000	   0.000000;
	2	 0.0	 0.0	 3	   0.000000	   2.000000	   0.000000;
	2	 0.0	 0.0	 3	   0.000000	   2.000000	   0.000000;
	2	 0.0	 0.0	 3	   0.000000	   2.000000	   0.000000;
	2	 0.0	 0.0	 3	   0.000000	   2.000000	   0.000000;
	2	 0.0	 0.0	 3	   0.000000	   2.000000	   0.000000;
	2	 0.0	 0.0	 3	   0.000000	   2.000000	   0.000000;
	2	 0.0	 0.0	 3	   0.000000	   1.000000	   0.000000;
	2	 0.0	 0.0	 3	   0.000000	   1.000000	   0.000000;
	2	 0.0	 0.0	 3	   0.000000	   1.000000	   0.000000;
	2	 0.0	 0.0	 3	   0.000000	   2.000000	   0.000000;
	2	 0.0	 0.0	 3	   0.000000	   1.000000	   0.000000;
	2	 0.0	 0.0	 3	   0.000000	   2.000000	   0.000000;
	2	 0.0	 0.0	 3	   0.000000	   2.000000	   0.000000;
	2	 0.0	 0.0	 3	   0.000000	   2.000000	   0.000000;
	2	 0.0	 0.0	 3	   0.000000	   2.000000	   0.000000;
	2	 0.0	 0.0	 3	   0.000000	   2.000000	   0.000000;
	2	 0.0	 0.0	 3	   0.000000	   1.000000	   0.000000;
	2	 0.0	 0.0	 3	   0.000000	   2.000000	   0.000000;
	2	 0.0	 0.0	 3	   0.000000	   2.000000	   0.000000;
	2	 0.0	 0.0	 3	   0.000000	   2.000000	   0.000000;
	2	 0.0	 0.0	 3	   0.000000	   2.000000	   0.000000;
	2	 0.0	 0.0	 3	   0.000000	   2.000000	   0.000000;
	2	 0.0	 0.0	 3	   0.000000	   1.000000	   0.000000;
	2	 0.0	 0.0	 3	   0.000000	   2.000000	   0.000000;
	2	 0.0	 0.0	 3	   0.000000	   2.000000	   0.000000;
	2	 0.0	 0.0	 3	   0.000000	   2.000000	   0.000000;
	2	 0.0	 0.0	 3	   0.000000	   2.000000	   0.000000;
	2	 0.0	 0.0	 3	   0.000000	   2.000000	   0.000000;
	2	 0.0	 0.0	 3	   0.000000	   2.000000	   0.000000;
	2	 0.0	 0.0	 3	   0.000000	   1.000000	   0.000000;
	2	 0.0	 0.0	 3	   0.000000	   2.000000	   0.000000;
	2	 0.0	 0.0	 3	   0.000000	   2.000000	   0.000000;
	2	 0.0	 0.0	 3	   0.000000	   1.000000	   0.000000;
	2	 0.0	 0.0	 3	   0.000000	   1.000000	   0.000000;
	2	 0.0	 0.0	 3	   0.000000	   2.000000	   0.000000;
	2	 0.0	 0.0	 3	   0.000000	   1.000000	   0.000000;
	2	 0.0	 0.0	 3	   0.000000	   1.000000	   0.000000;
	2	 0.0	 0.0	 3	   0.000000	   2.000000	   0.000000;
	2	 0.0	 0.0	 3	   0.000000	   1.000000	   0.000000;
	2	 0.0	 0.0	 3	   0.000000	   2.000000	   0.000000;
	2	 0.0	 0.0	 3	   0.000000	   2.000000	   0.000000;
	2	 0.0	 0.0	 3	   0.000000	   1.000000	   0.000000;
	2	 0.0	 0.0	 3	   0.000000	   1.000000	   0.000000;
	2	 0.0	 0.0	 3	   0.000000	   2.000000	   0.000000;
	2	 0.0	 0.0	 3	   0.000000	   1.000000	   0.000000;
	2	 0.0	 0.0	 3	   0.000000	   2.000000	   0.000000;
	2	 0.0	 0.0	 3	   0.000000	   2.000000	   0.000000;
	2	 0.0	 0.0	 3	   0.000000	   2.000000	   0.000000;
	2	 0.0	 0.0	 3	   0.000000	   1.000000	   0.000000;
	2	 0.0	 0.0	 3	   0.000000	   1.000000	   0.000000;
	2	 0.0	 0.0	 3	   0.000000	   1.000000	   0.000000;
	2	 0.0	 0.0	 3	   0.000000	   1.000000	   0.000000;
	2	 0.0	 0.0	 3	   0.000000	   1.000000	   0.000000;
	2	 0.0	 0.0	 3	   0.000000	   1.000000	   0.000000;
	2	 0.0	 0.0	 3	   0.000000	   2.000000	   0.000000;
	2	 0.0	 0.0	 3	   0.000000	   2.000000	   0.000000;
	2	 0.0	 0.0	 3	   0.000000	   1.000000	   0.000000;
	2	 0.0	 0.0	 3	   0.000000	   2.000000	   0.000000;
	2	 0.0	 0.0	 3	   0.000000	   2.000000	   0.000000;
	2	 0.0	 0.0	 3	   0.000000	   1.000000	   0.000000;
	2	 0.0	 0.0	 3	   0.000000	   2.000000	   0.000000;
	2	 0.0	 0.0	 3	   0.000000	   2.000000	   0.000000;
	2	 0.0	 0.0	 3	   0.000000	   2.000000	   0.000000;
	2	 0.0	 0.0	 3	   0.000000	   1.000000	   0.000000;
	2	 0.0	 0.0	 3	   0.000000	   2.000000	   0.000000;
	2	 0.0	 0.0	 3	   0.000000	   2.000000	   0.000000;
	2	 0.0	 0.0	 3	   0.000000	   2.000000	   0.000000;
	2	 0.0	 0.0	 3	   0.000000	   1.000000	   0.000000;
	2	 0.0	 0.0	 3	   0.000000	   1.000000	   0.000000;
	2	 0.0	 0.0	 3	   0.000000	   2.000000	   0.000000;
	2	 0.0	 0.0	 3	   0.000000	   2.000000	   0.000000;
	2	 0.0	 0.0	 3	   0.000000	   2.000000	   0.000000;
	2	 0.0	 0.0	 3	   0.000000	   2.000000	   0.000000;
	2	 0.0	 0.0	 3	   0.000000	   1.000000	   0.000000;
	2	 0.0	 0.0	 3	   0.000000	   1.000000	   0.000000;
	2	 0.0	 0.0	 3	   0.000000	   2.000000	   0.000000;
	2	 0.0	 0.0	 3	   0.000000	   2.000000	   0.000000;
	2	 0.0	 0.0	 3	   0.000000	   2.000000	   0.000000;
	2	 0.0	 0.0	 3	   0.000000	   2.000000	   0.000000;
	2	 0.0	 0.0	 3	   0.000000	   2.000000	   0.000000;
	2	 0.0	 0.0	 3	   0.000000	   2.000000	   0.000000;
	2	 0.0	 0.0	 3	   0.000000	   2.000000	   0.000000;
	2	 0.0	 0.0	 3	   0.000000	   2.000000	   0.000000;
	2	 0.0	 0.0	 3	   0.000000	   2.000000	   0.000000;
	2	 0.0	 0.0	 3	   0.000000	   1.000000	   0.000000;
	2	 0.0	 0.0	 3	   0.000000	   1.000000	   0.000000;
	2	 0.0	 0.0	 3	   0.000000	   1.000000	   0.000000;
	2	 0.0	 0.0	 3	   0.000000	   1.000000	   0.000000;
	2	 0.0	 0.0	 3	   0.000000	   1.000000	   0.000000;
	2	 0.0	 0.0	 3	   0.000000	   1.000000	   0.000000;
	2	 0.0	 0.0	 3	   0.000000	   1.000000	   0.000000;
	2	 0.0	 0.0	 3	   0.000000	   1.000000	   0.000000;
	2	 0.0	 0.0	 3	   0.000000	   2.000000	   0.000000;
	2	 0.0	 0.0	 3	   0.000000	   1.000000	   0.000000;
	2	 0.0	 0.0	 3	   0.000000	   1.000000	   0.000000;
	2	 0.0	 0.0	 3	   0.000000	   1.000000	   0.000000;
	2	 0.0	 0.0	 3	   0.000000	   1.000000	   0.000000;
	2	 0.0	 0.0	 3	   0.000000	   2.000000	   0.000000;
	2	 0.0	 0.0	 3	   0.000000	   2.000000	   0.000000;
	2	 0.0	 0.0	 3	   0.000000	   2.000000	   0.000000;
	2	 0.0	 0.0	 3	   0.000000	   1.000000	   0.000000;
	2	 0.0	 0.0	 3	   0.000000	   2.000000	   0.000000;
	2	 0.0	 0.0	 3	   0.000000	   2.000000	   0.000000;
...
];

%% branch data
%	fbus	tbus	r	x	b	rateA	rateB	rateC	ratio	angle	status	angmin	angmax
mpc.branch = [
	4639	 1	 0.005726	 0.010482	 0.0	 2186	 2186	 2186	 1.0	 0.0	 1	 -30.0	 30.0;
	5234	 1	 0.01284	 0.025679	 0.0	 910	 910	 910	 1.0	 0.0	 1	 -30.0	 30.0;
	1676	 2	 0.005799	 0.010615	 0.0075	 2441	 2441	 2441	 1.0	 0.0	 1	 -30.0	 30.0;
	1667	 3	 0.134039	 0.309398	 0.0035	 91	 91	 91	 1.0	 0.0	 1	 -30.0	 30.0;
	2296	 3	 0.049131	 0.133283	 0.0015	 215	 215	 215	 1.0	 0.0	 1	 -30.0	 30.0;
	695	 4	 0.025926	 0.109136	 0.0002	 281	 281	 281	 1.0	 0.0	 1	 -30.0	 30.0;
	3931	 4	 0.05	 0.126914	 0.0006	 226	 226	 226	 1.0	 0.0	 1	 -30.0	 30.0;
	5036	 4	 0.02321	 0.097407	 0.0016	 315	 315	 315	 1.0	 0.0	 1	 -30.0	 30.0;
	4405	 5	 0.040564	 0.113631	 0.0013	 245	 245	 245	 1.0	 0.0	 1	 -30.0	 30.0;
	2772	 6	 0.006047	 0.020912	 0.0222	 1398	 1398	 1398	 1.0	 0.0	 1	 -30.0	 30.0;
	2773	 7	 0.012472	 0.032099	 0.0061	 884	 884	 884	 1.0	 0.0	 1	 -30.0	 30.0;
	2459	 8	 0.002607	 0.017462	 0.0324	 540.0	 540.0	 540.0	 1.0	 0.0	 1	 -30.0	 30.0;
	470	 9	 0.053893	 0.14258	 0.0017	 194	 194	 194	 1.0	 0.0	 1	 -30.0	 30.0;
	11	 10	 0.000247	 0.001235	 0.0005	 24078	 24078	 24078	 1.0	 0.0	 1	 -30.0	 30.0;
	11	 10	 0.000247	 0.001235	 0.0002	 24078	 24078	 24078	 1.0	 0.0	 1	 -30.0	 30.0;
	30	 11	 0.039753	 0.100988	 0.0047	 284	 284	 284	 1.0	 0.0	 1	 -30.0	 30.0;
	2922	 11	 0.037654	 0.096173	 0.001	 294	 294	 294	 1.0	 0.0	 1	 -30.0	 30.0;
	2174	 12	 0.014613	 0.060721	 0.0008	 487	 487	 487	 1.0	 0.0	 1	 -30.0	 30.0;
	4009	 12	 0.034064	 0.121139	 0.0015	 242	 242	 242	 1.0	 0.0	 1	 -30.0	 30.0;
	4011	 12	 0.000242	 0.000442	 0.0004	 60355	 60355	 60355	 1.0	 0.0	 1	 -30.0	 30.0;
	115	 13	 2.1e-05	 0.000125	 0.1386	 737.0	 737.0	 737.0	 1.0	 0.0	 1	 -30.0	 30.0;
	2330	 13	 0.000145	 0.001877	 0.0635	 2487.0	 2487.0	 2487.0	 1.0	 0.0	 1	 -30.0	 30.0;
	4569	 13	 0.000319	 0.003234	 0.0838	 1841.0	 1841.0	 1841.0	 1.0	 0.0	 1	 -30.0	 30.0;
	116	 13	 2.1e-05	 0.000125	 0.1386	 737.0	 737.0	 737.0	 1.0	 0.0	 1	 -30.0	 30.0;
	1220	 14	 0.04	 0.134198	 0.0274	 217	 217	 217	 1.0	 0.0	 1	 -30.0	 30.0;
	2867	 14	 0.012222	 0.052346	 0.0026	 565	 565	 565	 1.0	 0.0	 1	 -30.0	 30.0;
	4587	 14	 0.007284	 0.045432	 0.0024	 664	 664	 664	 1.0	 0.0	 1	 -30.0	 30.0;
	4945	 14	 0.059963	 0.154222	 0.0236	 184	 184	 184	 1.0	 0.0	 1	 -30.0	 30.0;
	5220	 14	 0.018025	 0.110988	 0.0073	 270	 270	 270	 1.0	 0.0	 1	 -30.0	 30.0;
	2867	 14	 0.012222	 0.052593	 0.0032	 562	 562	 562	 1.0	 0.0	 1	 -30.0	 30.0;
	4587	 14	 0.007284	 0.044938	 0.0024	 671	 671	 671	 1.0	 0.0	 1	 -30.0	 30.0;
	2899	 15	 0.037541	 0.100529	 0.0011	 284	 284	 284	 1.0	 0.0	 1	 -30.0	 30.0;
	4116	 15	 0.090199	 0.211388	 0.0023	 133	 133	 133	 1.0	 0.0	 1	 -30.0	 30.0;
	4447	 15	 0.09801	 0.267574	 0.0	 107	 107	 107	 1.0	 0.0	 1	 -30.0	 30.0;
	249	 16	 0.071806	 0.191484	 0.0019	 149	 149	 149	 1.0	 0.0	 1	 -30.0	 30.0;
	337	 16	 0.119174	 0.284958	 0.0044	 99	 99	 99	 1.0	 0.0	 1	 -30.0	 30.0;
	5824	 17	 0.022346	 0.061111	 0.0029	 457	 457	 457	 1.0	 0.0	 1	 -30.0	 30.0;
	3719	 18	 0.009383	 0.019753	 0.0	 1194	 1194	 1194	 1.0	 0.0	 1	 -30.0	 30.0;
	5084	 19	 0.000252	 0.000504	 0.0	 52398	 52398	 52398	 1.0	 0.0	 1	 -30.0	 30.0;
	3719	 20	 0.001975	 0.004444	 0.0	 5369	 5369	 5369	 1.0	 0.0	 1	 -30.0	 30.0;
	1349	 21	 0.036296	 0.099012	 0.0045	 282	 282	 282	 1.0	 0.0	 1	 -30.0	 30.0;
	1592	 21	 0.032716	 0.089136	 0.0057	 313	 313	 313	 1.0	 0.0	 1	 -30.0	 30.0;
	1837	 22	 0.138574	 0.351474	 0.0058	 81	 81	 81	 1.0	 0.0	 1	 -30.0	 30.0;
	5013	 22	 0.094407	 0.210456	 0.0044	 132	 132	 132	 1.0	 0.0	 1	 -30.0	 30.0;
	1152	 23	 0.047115	 0.117158	 0.001	 234	 234	 234	 1.0	 0.0	 1	 -30.0	 30.0;
	2696	 23	 0.039557	 0.120937	 0.0132	 233	 233	 233	 1.0	 0.0	 1	 -30.0	 30.0;
	3418	 23	 0.022676	 0.062484	 0.0007	 445	 445	 445	 1.0	 0.0	 1	 -30.0	 30.0;
	144	 24	 0.064568	 0.16716	 0.0113	 180	 180	 180	 1.0	 0.0	 1	 -30.0	 30.0;
	1277	 24	 0.048605	 0.128481	 0.0062	 235	 235	 235	 1.0	 0.0	 1	 -30.0	 30.0;
	490	 25	 0.004815	 0.02963	 0.0016	 1048	 1048	 1048	 1.0	 0.0	 1	 -30.0	 30.0;
	2086	 25	 0.007309	 0.04463	 0.0073	 710	 710	 710	 1.0	 0.0	 1	 -30.0	 30.0;
	612	 26	 0.034321	 0.145802	 0.0073	 199	 199	 199	 1.0	 0.0	 1	 -30.0	 30.0;
	1860	 26	 0.004815	 0.009753	 0.0005	 2731	 2731	 2731	 1.0	 0.0	 1	 -30.0	 30.0;
	2595	 26	 0.049012	 0.133704	 0.0063	 209	 209	 209	 1.0	 0.0	 1	 -30.0	 30.0;
	2915	 26	 0.04642	 0.126543	 0.0058	 221	 221	 221	 1.0	 0.0	 1	 -30.0	 30.0;
	3332	 26	 0.046296	 0.125926	 0.006	 222	 222	 222	 1.0	 0.0	 1	 -30.0	 30.0;
	4624	 26	 0.053704	 0.136753	 0.0065	 203	 203	 203	 1.0	 0.0	 1	 -30.0	 30.0;
	2915	 26	 0.03358	 0.120988	 0.0062	 237	 237	 237	 1.0	 0.0	 1	 -30.0	 30.0;
	536	 27	 0.006163	 0.041067	 0.0759	 446.0	 446.0	 446.0	 1.0	 0.0	 1	 -30.0	 30.0;
	2343	 27	 0.000652	 0.004369	 0.0081	 558.0	 558.0	 558.0	 1.0	 0.0	 1	 -30.0	 30.0;
	2677	 28	 0.050945	 0.131922	 0.0015	 216	 216	 216	 1.0	 0.0	 1	 -30.0	 30.0;
	3884	 28	 0.058781	 0.149005	 0.0017	 190	 190	 190	 1.0	 0.0	 1	 -30.0	 30.0;
	2880	 29	 0.067019	 0.137566	 0.0037	 193	 193	 193	 1.0	 0.0	 1	 -30.0	 30.0;
	3314	 29	 0.032754	 0.088939	 0.0039	 312	 312	 312	 1.0	 0.0	 1	 -30.0	 30.0;
	3314	 29	 0.030184	 0.080096	 0.0053	 345	 345	 345	 1.0	 0.0	 1	 -30.0	 30.0;
	144	 30	 0.066049	 0.187778	 0.0099	 161	 161	 161	 1.0	 0.0	 1	 -30.0	 30.0;
	1548	 30	 0.065062	 0.133704	 0.0062	 212	 212	 212	 1.0	 0.0	 1	 -30.0	 30.0;
	4831	 30	 0.041728	 0.106049	 0.005	 281	 281	 281	 1.0	 0.0	 1	 -30.0	 30.0;
	150	 31	 0.009574	 0.03875	 0.0114	 740	 740	 740	 1.0	 0.0	 1	 -30.0	 30.0;
	3155	 31	 0.000171	 0.000313	 0.0002	 82782	 82782	 82782	 1.0	 0.0	 1	 -30.0	 30.0;
	3684	 31	 0.034266	 0.09423	 0.001	 295	 295	 295	 1.0	 0.0	 1	 -30.0	 30.0;
	4733	 31	 0.006803	 0.028219	 0.0	 1018	 1018	 1018	 1.0	 0.0	 1	 -30.0	 30.0;
	150	 31	 0.008566	 0.037541	 0.0121	 767	 767	 767	 1.0	 0.0	 1	 -30.0	 30.0;
	3721	 32	 0.009733	 0.034089	 0.0185	 902	 902	 902	 1.0	 0.0	 1	 -30.0	 30.0;
	366	 34	 0.000277	 0.002015	 0.003	 288.0	 288.0	 288.0	 1.0	 0.0	 1	 -30.0	 30.0;
	1012	 33	 0.00881	 0.033995	 0.0607	 289.0	 289.0	 289.0	 1.0	 0.0	 1	 -30.0	 30.0;
	1153	 33	 0.004642	 0.019832	 0.0354	 255.0	 255.0	 255.0	 1.0	 0.0	 1	 -30.0	 30.0;
	2573	 34	 0.008861	 0.03506	 0.0623	 288.0	 288.0	 288.0	 1.0	 0.0	 1	 -30.0	 30.0;
	2697	 34	 0.006993	 0.032869	 0.0557	 255.0	 255.0	 255.0	 1.0	 0.0	 1	 -30.0	 30.0;
	4738	 33	 0.002173	 0.008731	 0.0152	 3441	 3441	 3441	 1.0	 0.0	 1	 -30.0	 30.0;
	4848	 34	 0.00077	 0.003121	 0.0051	 9629	 9629	 9629	 1.0	 0.0	 1	 -30.0	 30.0;
	5661	 33	 0.004109	 0.016138	 0.0284	 288.0	 288.0	 288.0	 1.0	 0.0	 1	 -30.0	 30.0;
	368	 35	 8.3e-05	 0.000907	 0.0202	 1034.0	 1034.0	 1034.0	 1.0	 0.0	 1	 -30.0	 30.0;
	1104	 35	 0.000552	 0.006726	 0.0939	 1786.0	 1786.0	 1786.0	 1.0	 0.0	 1	 -30.0	 30.0;
...